object Model: TPhastModel
  ModelSelection = msModflowNWT
  Mf6GridType = mgtStructured
  PhastGrid.ColumnCount = -1
  PhastGrid.ColumnDirection = cdWestToEast
  PhastGrid.LayerCount = -1
  PhastGrid.LayerDirection = ldBottomToTop
  PhastGrid.RowCount = -1
  PhastGrid.RowDirection = rdSouthToNorth
  PhastGrid.SelectedColumn = 0
  PhastGrid.SelectedLayer = 0
  PhastGrid.SelectedRow = 0
  PhastGrid.DisplayColumn = 0
  PhastGrid.DisplayRow = 0
  PhastGrid.DisplayLayer = 0
  PhastGrid.ColumnPositions = ()
  PhastGrid.RowPositions = ()
  PhastGrid.LayerElevations = ()
  AlternateFlowPackage = False
  AlternateSolver = False
  ModflowGrid.ColumnCount = 6
  ModflowGrid.ColumnDirection = cdWestToEast
  ModflowGrid.LayerCount = 2
  ModflowGrid.LayerDirection = ldTopToBottom
  ModflowGrid.RowCount = 6
  ModflowGrid.RowDirection = rdNorthToSouth
  ModflowGrid.SelectedColumn = 0
  ModflowGrid.SelectedLayer = 0
  ModflowGrid.SelectedRow = 0
  ModflowGrid.DisplayColumn = 0
  ModflowGrid.DisplayRow = 0
  ModflowGrid.DisplayLayer = 0
  ModflowGrid.ColumnPositions = (
    0.000000000000000000
    304.800000000000000000
    609.600000000000000000
    914.400000000000000000
    1219.200000000000000000
    1524.000000000000000000
    1828.800000000000000000)
  ModflowGrid.RowPositions = (
    0.000000000000000000
    -304.800000000000000000
    -609.600000000000000000
    -914.400000000000000000
    -1219.200000000000000000
    -1524.000000000000000000
    -1828.800000000000000000)
  ModflowPackages.ChdBoundary.IsSelected = False
  ModflowPackages.GhbBoundary.IsSelected = True
  ModflowPackages.GhbBoundary.Comments.Strings = (
    'MODFLOW2000 General Head Boundary Package')
  ModflowPackages.LpfPackage.IsSelected = False
  ModflowPackages.LpfPackage.UseConstantCV = False
  ModflowPackages.LpfPackage.UseSaturatedThickness = False
  ModflowPackages.LpfPackage.UseStorageCoefficient = False
  ModflowPackages.LpfPackage.NoParCheck = False
  ModflowPackages.PcgPackage.IsSelected = False
  ModflowPackages.PcgPackage.NPCOND = pmCholesky
  ModflowPackages.PcgPackage.HCLOSE.Value = 0.001000000000000000
  ModflowPackages.PcgPackage.RCLOSE.Value = 0.001000000000000000
  ModflowPackages.PcgPackage.RELAX.Value = 1.000000000000000000
  ModflowPackages.PcgPackage.NBPOL = peeEstimate
  ModflowPackages.PcgPackage.MUTPCG = ppsAll
  ModflowPackages.PcgPackage.DAMPPCG.Value = 1.000000000000000000
  ModflowPackages.PcgPackage.DAMPPCGT.Value = 1.000000000000000000
  ModflowPackages.PcgPackage.IHCOFADD = dcoConvertWhenSurrounded
  ModflowPackages.PcgnPackage.IsSelected = False
  ModflowPackages.PcgnPackage.ITER_MO = 50
  ModflowPackages.PcgnPackage.ITER_MI = 20
  ModflowPackages.PcgnPackage.CLOSE_R.Value = 0.001000000000000000
  ModflowPackages.PcgnPackage.CLOSE_H.Value = 0.000010000000000000
  ModflowPackages.PcgnPackage.RELAX.Value = 0.990000000000000000
  ModflowPackages.PcgnPackage.IFILL = 0
  ModflowPackages.PcgnPackage.UNIT_PC = False
  ModflowPackages.PcgnPackage.UNIT_TS = False
  ModflowPackages.PcgnPackage.ADAMP = dOrdinary
  ModflowPackages.PcgnPackage.DAMP.Value = 0.500000000000000000
  ModflowPackages.PcgnPackage.DAMP_LB.Value = 0.100000000000000000
  ModflowPackages.PcgnPackage.RATE_D.Value = 0.050000000000000000
  ModflowPackages.PcgnPackage.CHGLIMIT.Value = 0.000000000000000000
  ModflowPackages.PcgnPackage.ACNVG = cmStandard
  ModflowPackages.PcgnPackage.CNVG_LB.Value = 0.010000000000000000
  ModflowPackages.PcgnPackage.MCNVG = 2
  ModflowPackages.PcgnPackage.RATE_C.Value = 0.100000000000000000
  ModflowPackages.PcgnPackage.IPUNIT = prListing
  ModflowPackages.WelPackage.IsSelected = False
  ModflowPackages.WelPackage.PublishedPhiRamp.Value = 0.000001000000000000
  ModflowPackages.WelPackage.UseTabFiles = False
  ModflowPackages.RivPackage.IsSelected = False
  ModflowPackages.DrnPackage.IsSelected = False
  ModflowPackages.DrtPackage.IsSelected = False
  ModflowPackages.RchPackage.IsSelected = False
  ModflowPackages.RchPackage.LayerOption = loTop
  ModflowPackages.RchPackage.TimeVaryingLayers = False
  ModflowPackages.RchPackage.MultiplierArrayNames = <>
  ModflowPackages.RchPackage.ZoneArrayNames = <>
  ModflowPackages.RchPackage.AssignmentMethod = umAssign
  ModflowPackages.EvtPackage.IsSelected = False
  ModflowPackages.EvtPackage.LayerOption = loTop
  ModflowPackages.EvtPackage.TimeVaryingLayers = False
  ModflowPackages.EvtPackage.MultiplierArrayNames = <>
  ModflowPackages.EvtPackage.ZoneArrayNames = <>
  ModflowPackages.EtsPackage.IsSelected = False
  ModflowPackages.EtsPackage.LayerOption = loTop
  ModflowPackages.EtsPackage.TimeVaryingLayers = False
  ModflowPackages.EtsPackage.MultiplierArrayNames = <>
  ModflowPackages.EtsPackage.ZoneArrayNames = <>
  ModflowPackages.ResPackage.IsSelected = False
  ModflowPackages.ResPackage.LayerOption = loTop
  ModflowPackages.ResPackage.TimeVaryingLayers = False
  ModflowPackages.ResPackage.MultiplierArrayNames = <>
  ModflowPackages.ResPackage.ZoneArrayNames = <>
  ModflowPackages.LakPackage.IsSelected = False
  ModflowPackages.LakPackage.ConvergenceCriterion = 0.000010000000000000
  ModflowPackages.LakPackage.Theta = 0.500000000000000000
  ModflowPackages.LakPackage.SurfDepth.Value = 0.200000000000000000
  ModflowPackages.LakPackage.ExternalLakeChoice = elcNone
  ModflowPackages.SfrPackage.IsSelected = False
  ModflowPackages.SfrPackage.Dleak = 0.000100000000000000
  ModflowPackages.SfrPackage.Isfropt = 0
  ModflowPackages.SfrPackage.Nstrail = 10
  ModflowPackages.SfrPackage.Isuzn = 10
  ModflowPackages.SfrPackage.Nsfrsets = 30
  ModflowPackages.SfrPackage.KinematicRouting = False
  ModflowPackages.SfrPackage.KinematicRoutingTolerance = 0.000100000000000000
  ModflowPackages.SfrPackage.KinematicRoutingWeight = 1.000000000000000000
  ModflowPackages.SfrPackage.GageOverallBudget = False
  ModflowPackages.SfrPackage.LossFactorOption = False
  ModflowPackages.SfrPackage.StoredLossFactor.Value = 1.000000000000000000
  ModflowPackages.UzfPackage.IsSelected = True
  ModflowPackages.UzfPackage.Comments.Strings = (
    'MODFLOW2005 UZF Input File'
    
      'CONSTANT     0.15              1.000 (FREE)       1     #THTI af' +
      'ter THTS'
    
      'NUZTOP IUZFOPT IRUNFLG IETFLG IUZCB1 IUZFCB2 [NTRAIL2 NSETS2] NU' +
      'ZGAG SURFDEP')
  ModflowPackages.UzfPackage.LayerOption = loTop
  ModflowPackages.UzfPackage.VerticalKSource = 2
  ModflowPackages.UzfPackage.RouteDischargeToStreams = True
  ModflowPackages.UzfPackage.SimulateET = True
  ModflowPackages.UzfPackage.NumberOfTrailingWaves = 20
  ModflowPackages.UzfPackage.NumberOfWaveSets = 20
  ModflowPackages.UzfPackage.PrintSummary = 0
  ModflowPackages.UzfPackage.DepthOfUndulations = 0.500000000000000000
  ModflowPackages.UzfPackage.AssignmentMethod = umAssign
  ModflowPackages.UzfPackage.SpecifyResidualWaterContent = False
  ModflowPackages.UzfPackage.SpecifyInitialWaterContent = False
  ModflowPackages.UzfPackage.SurfaceKUsedToCalculateRejection = False
  ModflowPackages.UzfPackage.SurfaceKUsedToCalculateSeepage = False
  ModflowPackages.UzfPackage.ETSmoothed = False
  ModflowPackages.UzfPackage.StoredSmoothFactor.Value = 0.100000000000000000
  ModflowPackages.UzfPackage.WriteRechargeAndDischarge = False
  ModflowPackages.GmgPackage.IsSelected = False
  ModflowPackages.GmgPackage.RCLOSE.Value = 0.000010000000000000
  ModflowPackages.GmgPackage.IITER = 100
  ModflowPackages.GmgPackage.HCLOSE.Value = 0.000010000000000000
  ModflowPackages.GmgPackage.MXITER = 100
  ModflowPackages.GmgPackage.DAMP.Value = 1.000000000000000000
  ModflowPackages.GmgPackage.IADAMP = 0
  ModflowPackages.GmgPackage.IOUTGMG = 1
  ModflowPackages.GmgPackage.IUNITMHC = False
  ModflowPackages.GmgPackage.ISM = 0
  ModflowPackages.GmgPackage.ISC = 1
  ModflowPackages.GmgPackage.DUP.Value = 0.700000000000000000
  ModflowPackages.GmgPackage.DLOW.Value = 0.001000000000000000
  ModflowPackages.GmgPackage.CHGLIMIT.Value = 0.001000000000000000
  ModflowPackages.GmgPackage.RELAX.Value = 1.000000000000000000
  ModflowPackages.SipPackage.IsSelected = False
  ModflowPackages.SipPackage.MXITER = 100
  ModflowPackages.SipPackage.NPARM = 5
  ModflowPackages.SipPackage.ACCL.Value = 1.000000000000000000
  ModflowPackages.SipPackage.HCLOSE.Value = 0.001000000000000000
  ModflowPackages.SipPackage.IPCALC = 1
  ModflowPackages.SipPackage.WSEED.Value = 9999.000000000000000000
  ModflowPackages.SipPackage.IPRSIP = 999
  ModflowPackages.De4Package.IsSelected = False
  ModflowPackages.De4Package.ITMX = 5
  ModflowPackages.De4Package.MXUP = 0
  ModflowPackages.De4Package.MXLOW = 0
  ModflowPackages.De4Package.MXBW = 0
  ModflowPackages.De4Package.IFREQ = 3
  ModflowPackages.De4Package.MUTD4 = 0
  ModflowPackages.De4Package.ACCL.Value = 1.000000000000000000
  ModflowPackages.De4Package.HCLOSE.Value = 0.001000000000000000
  ModflowPackages.De4Package.IPRD4 = 1
  ModflowPackages.HobPackage.IsSelected = True
  ModflowPackages.HobPackage.DryHead = -1000000.000000000000000000
  ModflowPackages.HfbPackage.IsSelected = False
  ModflowPackages.ModPath.IsSelected = False
  ModflowPackages.ModPath.MaximumSize = 0
  ModflowPackages.ModPath.Compact = False
  ModflowPackages.ModPath.Binary = False
  ModflowPackages.ModPath.OutputMode = mopEndpoints
  ModflowPackages.ModPath.OutputTimes = <>
  ModflowPackages.ModPath.StopAfterMaxTime = False
  ModflowPackages.ModPath.TrackingDirection = tdForward
  ModflowPackages.ModPath.WeakSink = wsPassThrough
  ModflowPackages.ModPath.StopInZone = False
  ModflowPackages.ModPath.StopZoneNumber = 0
  ModflowPackages.ModPath.EndpointWrite = ewAll
  ModflowPackages.ModPath.ComputeBudgetInAllCells = False
  ModflowPackages.ModPath.Summarize = False
  ModflowPackages.ModPath.TimeSeriesMethod = tsmUniform
  ModflowPackages.ModPath.TimeSeriesInterval = 1.000000000000000000
  ModflowPackages.ModPath.TimeSeriesMaxCount = 0
  ModflowPackages.ModPath.MpathVersion = mp6
  ModflowPackages.ModPath.WeakSource = wsPassThrough
  ModflowPackages.ModPath.StopOption = soModelEnd
  ModflowPackages.ModPath.BudgetChecking = bcNone
  ModflowPackages.ModPath.RetardationOption = roNone
  ModflowPackages.ModPath.AdvectiveObservations = aoNone
  ModflowPackages.ChobPackage.IsSelected = False
  ModflowPackages.DrobPackage.IsSelected = False
  ModflowPackages.GbobPackage.IsSelected = False
  ModflowPackages.RvobPackage.IsSelected = False
  ModflowPackages.StobPackage.IsSelected = False
  ModflowPackages.HufPackage.IsSelected = False
  ModflowPackages.HufPackage.ReferenceChoice = hrcModelTop
  ModflowPackages.Mnw2Package.IsSelected = False
  ModflowPackages.Mnw2Package.CreateWellFile = False
  ModflowPackages.Mnw2Package.SummarizeByWell = False
  ModflowPackages.Mnw2Package.SummarizeByNode = False
  ModflowPackages.BcfPackage.IsSelected = False
  ModflowPackages.SubPackage.IsSelected = False
  ModflowPackages.SubPackage.PrintFormats.SubsidenceFormat = 0
  ModflowPackages.SubPackage.PrintFormats.CompactionByModelLayerFormat = 0
  ModflowPackages.SubPackage.PrintFormats.CompactionByInterbedSystemFormat = 0
  ModflowPackages.SubPackage.PrintFormats.VerticalDisplacementFormat = 0
  ModflowPackages.SubPackage.PrintFormats.NoDelayPreconsolidationHeadFormat = 0
  ModflowPackages.SubPackage.PrintFormats.DelayPreconsolidationHeadFormat = 0
  ModflowPackages.SubPackage.PrintFormats.ElasticCompactionByModelLayerFormat = 0
  ModflowPackages.SubPackage.PrintFormats.InelasticCompactionByModelLayerFormat = 0
  ModflowPackages.SubPackage.PrintFormats.ElasticCompactionByInterbedSystemFormat = 0
  ModflowPackages.SubPackage.PrintFormats.InelasticCompactionByInterbedSystemFormat = 0
  ModflowPackages.SubPackage.PrintChoices = <>
  ModflowPackages.SubPackage.NumberOfNodes = 10
  ModflowPackages.SubPackage.AccelerationParameter2 = 1.000000000000000000
  ModflowPackages.SubPackage.MinIterations = 5
  ModflowPackages.SubPackage.SaveDelayRestart = False
  ModflowPackages.SubPackage.BinaryOutputChoice = sbocSingleFile
  ModflowPackages.SubPackage.LinkSubsidence = False
  ModflowPackages.ZoneBudget.IsSelected = False
  ModflowPackages.ZoneBudget.CompositeZones = <>
  ModflowPackages.ZoneBudget.ExportZBLST = True
  ModflowPackages.ZoneBudget.ExportCSV = True
  ModflowPackages.ZoneBudget.ExportCSV2 = True
  ModflowPackages.SwtPackage.IsSelected = False
  ModflowPackages.SwtPackage.ThickResponse = trConstant
  ModflowPackages.SwtPackage.VoidRatioResponse = vrrConstant
  ModflowPackages.SwtPackage.CompressionSource = csSpecificStorage
  ModflowPackages.SwtPackage.PrintFormats.SubsidenceFormat = 0
  ModflowPackages.SwtPackage.PrintFormats.CompactionByModelLayerFormat = 0
  ModflowPackages.SwtPackage.PrintFormats.CompactionByInterbedSystemFormat = 0
  ModflowPackages.SwtPackage.PrintFormats.VerticalDisplacementFormat = 0
  ModflowPackages.SwtPackage.PrintFormats.PreconsolidationStress = 0
  ModflowPackages.SwtPackage.PrintFormats.DeltaPreconsolidationStress = 0
  ModflowPackages.SwtPackage.PrintFormats.GeostaticStress = 0
  ModflowPackages.SwtPackage.PrintFormats.DeltaGeostaticStress = 0
  ModflowPackages.SwtPackage.PrintFormats.EffectiveStress = 0
  ModflowPackages.SwtPackage.PrintFormats.DeltaEffectiveStress = 0
  ModflowPackages.SwtPackage.PrintFormats.VoidRatio = 0
  ModflowPackages.SwtPackage.PrintFormats.ThicknessCompressibleSediments = 0
  ModflowPackages.SwtPackage.PrintFormats.LayerCenterElevation = 0
  ModflowPackages.SwtPackage.PrintChoices = <>
  ModflowPackages.SwtPackage.InitialPrint.PrintInitialLayerCenterElevations = False
  ModflowPackages.SwtPackage.InitialPrint.InitialLayerCenterElevationFormat = 0
  ModflowPackages.SwtPackage.InitialPrint.PrintInitialGeostaticStress = False
  ModflowPackages.SwtPackage.InitialPrint.InitialGeostaticStressFormat = 0
  ModflowPackages.SwtPackage.InitialPrint.PrintInitialEffectiveStress = False
  ModflowPackages.SwtPackage.InitialPrint.InitialEffectiveStressFormat = 0
  ModflowPackages.SwtPackage.InitialPrint.PrintInitialPreconsolidationStress = False
  ModflowPackages.SwtPackage.InitialPrint.InitialPreconsolidationStressFormat = 0
  ModflowPackages.SwtPackage.InitialPrint.PrintInitialEquivalentStorageProperties = False
  ModflowPackages.SwtPackage.InitialPrint.InitialEquivalentStoragePropertiesFormat = 0
  ModflowPackages.SwtPackage.BinaryOutputChoice = sbocSingleFile
  ModflowPackages.HydmodPackage.IsSelected = False
  ModflowPackages.HydmodPackage.StoredHYDNOH.Value = -1E20
  ModflowPackages.UpwPackage.IsSelected = True
  ModflowPackages.UpwPackage.Comments.Strings = (
    'MODFLOW2000 Layer Property Flow (LPF) Package')
  ModflowPackages.UpwPackage.HDryPrintOption = hpoDontPrintHdry
  ModflowPackages.UpwPackage.NoParCheck = False
  ModflowPackages.NwtPackage.IsSelected = True
  ModflowPackages.NwtPackage.HeadTolerance.Value = 0.001000000000000000
  ModflowPackages.NwtPackage.FluxTolerance.Value = 1.500000000000000000
  ModflowPackages.NwtPackage.MaxOuterIterations = 30
  ModflowPackages.NwtPackage.ThicknessFactor.Value = 0.000001000000000000
  ModflowPackages.NwtPackage.SolverMethod = nsmChiMD
  ModflowPackages.NwtPackage.PrintFlag = 1
  ModflowPackages.NwtPackage.CorrectForCellBottom = 1
  ModflowPackages.NwtPackage.Option = noSpecified
  ModflowPackages.NwtPackage.DBDTheta.Value = 0.750000000000000000
  ModflowPackages.NwtPackage.DBDKappa.Value = 0.000099999997000000
  ModflowPackages.NwtPackage.DBDGamma.Value = 0.000000000000000000
  ModflowPackages.NwtPackage.MomementumCoefficient.Value = 0.100000000000000000
  ModflowPackages.NwtPackage.BackFlag = 0
  ModflowPackages.NwtPackage.MaxBackIterations = 1
  ModflowPackages.NwtPackage.BackTol.Value = 0.000000000000000000
  ModflowPackages.NwtPackage.BackReduce.Value = 0.000000000000000000
  ModflowPackages.NwtPackage.MaxIterInner = 50
  ModflowPackages.NwtPackage.IluMethod = nimKOrder
  ModflowPackages.NwtPackage.FillLimit = 7
  ModflowPackages.NwtPackage.FillLevel = 1
  ModflowPackages.NwtPackage.StopTolerance.Value = 0.000000000100000000
  ModflowPackages.NwtPackage.MaxGmresRestarts = 10
  ModflowPackages.NwtPackage.AccelMethod = namOthoMin
  ModflowPackages.NwtPackage.OrderingMethod = nomOriginal
  ModflowPackages.NwtPackage.Level = 3
  ModflowPackages.NwtPackage.NumberOfOrthogonalizations = 7
  ModflowPackages.NwtPackage.ApplyReducedPrecondition = narpDontApply
  ModflowPackages.NwtPackage.ResidReducConv.Value = 0.000000000000000000
  ModflowPackages.NwtPackage.UseDropTolerance = nudtUse
  ModflowPackages.NwtPackage.DropTolerancePreconditioning.Value = 0.000099999997000000
  ModflowPackages.NwtPackage.InnerHeadClosureCriterion.Value = 0.001000000000000000
  ModflowPackages.NwtPackage.MaxInnerIterations = 100
  ModflowPackages.NwtPackage.ContinueNWT = False
  ModflowPackages.Mt3dBasic.IsSelected = False
  ModflowPackages.Mt3dBasic.StoredMassUnit.Value = 'g'
  ModflowPackages.Mt3dBasic.StoredInactiveConcentration.Value = -1E30
  ModflowPackages.Mt3dBasic.StoredMinimumSaturatedFraction.Value = 0.010000000000000000
  ModflowPackages.Mt3dBasic.Mt3dVersion = mvUSGS
  ModflowPackages.Mt3dBasic.InitialChoice = micSpecifyTimeStep
  ModflowPackages.Mt3dBasic.Mt3dUsgsOptions = [muoWetDryPrint, muoIncludeDryCellBudget]
  ModflowPackages.Mt3dmsGCGSolver.IsSelected = False
  ModflowPackages.Mt3dmsGCGSolver.MaxOuterIterations = 1
  ModflowPackages.Mt3dmsGCGSolver.MaxInnerIterations = 200
  ModflowPackages.Mt3dmsGCGSolver.PreconditionerChoice = gpCholesky
  ModflowPackages.Mt3dmsGCGSolver.DispersionTensorChoice = dtcLump
  ModflowPackages.Mt3dmsGCGSolver.StoredRelaxationFactor.Value = 1.000000000000000000
  ModflowPackages.Mt3dmsGCGSolver.StoredConvergenceCriterion.Value = 0.000001000000000000
  ModflowPackages.Mt3dmsGCGSolver.PrintoutInterval = 1
  ModflowPackages.Mt3dmsAdvection.IsSelected = False
  ModflowPackages.Mt3dmsAdvection.AdvectionSolution = asUltimate
  ModflowPackages.Mt3dmsAdvection.StoredCourant.Value = 1.000000000000000000
  ModflowPackages.Mt3dmsAdvection.MaximumParticles = 75000
  ModflowPackages.Mt3dmsAdvection.WeightingScheme = wsUpstream
  ModflowPackages.Mt3dmsAdvection.ParticleTrackMethod = ptmHybrid
  ModflowPackages.Mt3dmsAdvection.StoredConcWeight.Value = 0.500000000000000000
  ModflowPackages.Mt3dmsAdvection.StoredRelCelConcGrad.Value = 0.000010000000000000
  ModflowPackages.Mt3dmsAdvection.ParticlePlacementMethod = ppmRandom
  ModflowPackages.Mt3dmsAdvection.NumberOfParticlePlanes = 1
  ModflowPackages.Mt3dmsAdvection.LowGradientParticleCount = 0
  ModflowPackages.Mt3dmsAdvection.HighGradientParticleCount = 10
  ModflowPackages.Mt3dmsAdvection.MinParticlePerCell = 2
  ModflowPackages.Mt3dmsAdvection.MaxParticlesPerCell = 20
  ModflowPackages.Mt3dmsAdvection.SinkParticlePlacementMethod = ppmRandom
  ModflowPackages.Mt3dmsAdvection.SinkNumberOfParticlePlanes = 1
  ModflowPackages.Mt3dmsAdvection.SinkParticleCount = 10
  ModflowPackages.Mt3dmsAdvection.StoredCriticalConcGradient.Value = 0.010000000000000000
  ModflowPackages.Mt3dmsDispersion.IsSelected = False
  ModflowPackages.Mt3dmsDispersion.MultiDifussion = False
  ModflowPackages.Mt3dmsDispersion.CrossTermsUsed = True
  ModflowPackages.Mt3dmsSourceSink.IsSelected = False
  ModflowPackages.Mt3dmsChemReact.IsSelected = False
  ModflowPackages.Mt3dmsChemReact.SorptionChoice = scLinear
  ModflowPackages.Mt3dmsChemReact.KineticChoice = kcNone
  ModflowPackages.Mt3dmsChemReact.OtherInitialConcChoice = oicDontUse
  ModflowPackages.Mt3dmsChemReact.ReactionChoice = rcNone
  ModflowPackages.Mt3dmsChemReact.YieldCoefficients.Strings = (
    '')
  ModflowPackages.Mt3dmsChemReact.ElectronDonor = -1
  ModflowPackages.Mt3dmsChemReact.ElectronAcceptor = -1
  ModflowPackages.Mt3dmsChemReact.StoredStochiometricRatio.Value = 1.000000000000000000
  ModflowPackages.Mt3dmsChemReact.ElectronDonorCount = 0
  ModflowPackages.Mt3dmsChemReact.ElectronAcceptorCount = 0
  ModflowPackages.Mt3dmsChemReact.SolidFE = sfNo
  ModflowPackages.Mt3dmsChemReact.SpecialCases = <>
  ModflowPackages.Mt3dmsChemReact.EAProperties = <>
  ModflowPackages.Mt3dmsChemReact.DecayRates = <>
  ModflowPackages.Mt3dmsChemReact.Yields = <>
  ModflowPackages.Mt3dmsTransObs.IsSelected = False
  ModflowPackages.Mt3dmsTransObs.SaveBinary = sbSave
  ModflowPackages.Mt3dmsTransObs.StoredConcScaleFactor.Value = 1.000000000000000000
  ModflowPackages.Mt3dmsTransObs.ConcObsResult = corConcResid
  ModflowPackages.Mt3dmsTransObs.TransformType = ltNoConversion
  ModflowPackages.Mt3dmsTransObs.InterpolateObs = ioBilinear
  ModflowPackages.Mt3dmsTransObs.StoredFluxScaleFactor.Value = 1.000000000000000000
  ModflowPackages.Mt3dmsTransObs.MassFluxObsResult = mfoMassFluxResid
  ModflowPackages.Mt3dUnsatTransport.IsSelected = False
  ModflowPackages.Mt3dLkt.IsSelected = False
  ModflowPackages.Mt3dLkt.EvaporateMass = False
  ModflowPackages.Mt3dLkt.PrintLakeTransportBudget = True
  ModflowPackages.Mt3dSft.IsSelected = False
  ModflowPackages.Mt3dSft.EvaporateMass = False
  ModflowPackages.Mt3dSft.StoredTimeWeightingFactor.Value = 0.500000000000000000
  ModflowPackages.Mt3dSft.StoredSpaceWeightingFactor.Value = 1.000000000000000000
  ModflowPackages.Mt3dSft.StoredClosureCriterion.Value = 0.000001000000000000
  ModflowPackages.Mt3dSft.MaxSftIterations = 10
  ModflowPackages.Mt3dSft.SolverPrintChoice = sftDetailed
  ModflowPackages.Mt3dSft.SimulateTransportInStream = True
  ModflowPackages.StrPackage.IsSelected = False
  ModflowPackages.StrPackage.CalculateStage = False
  ModflowPackages.FhbPackage.IsSelected = False
  ModflowPackages.FarmProcess.IsSelected = False
  ModflowPackages.FarmProcess.RootingDepth = rdSpecified
  ModflowPackages.FarmProcess.ConsumptiveUse = cuPotentialAndReferenceET
  ModflowPackages.FarmProcess.Precipitation = pTimeSeries
  ModflowPackages.FarmProcess.FractionOfInefficiencyLosses = filCalculated
  ModflowPackages.FarmProcess.EfficiencyGroundwaterFunction = egfDeliveriesVary
  ModflowPackages.FarmProcess.EfficiencyReset = erStressPeriod
  ModflowPackages.FarmProcess.DeficiencyPolicy = dpNoPolicy
  ModflowPackages.FarmProcess.GroundwaterAllotmentsUsed = False
  ModflowPackages.FarmProcess.CropConsumptiveConcept = cccConcept1
  ModflowPackages.FarmProcess.CropConsumptiveLinkage = cclNotLinked
  ModflowPackages.FarmProcess.SurfaceWaterAllotment = swaNone
  ModflowPackages.FarmProcess.SaveWellFlowRates = swfrDefault
  ModflowPackages.FarmProcess.SaveNetRecharge = snrDefault
  ModflowPackages.FarmProcess.SupplyAndDemand = sadDefault
  ModflowPackages.FarmProcess.FarmBudgetPrintFlags = fbpNone
  ModflowPackages.FarmProcess.FarmBudgetPrintHowMuch = fbpCompact
  ModflowPackages.FarmProcess.EtPrintLocation = eplText
  ModflowPackages.FarmProcess.EtPrintType = eptNone
  ModflowPackages.FarmProcess.PrintRouting = prListingFile
  ModflowPackages.FarmProcess.PrintRoutingFrequency = prfAllPeriods
  ModflowPackages.FarmProcess.AcerageOptimizationPrintChoice = aopcCellFractionsAndResourceConstraints
  ModflowPackages.FarmProcess.AcerageOptimizationPrintLocation = aoplListing
  ModflowPackages.FarmProcess.DiversionBudgetLocation = dblListing
  ModflowPackages.FarmProcess.CropIrrigationRequirement = cirContinuously
  ModflowPackages.FarmProcess.RoutedDelivery = rdNone
  ModflowPackages.FarmProcess.RoutedReturn = rrAny
  ModflowPackages.FarmProcess.StoredSurfaceWaterClosure.Value = 0.001000000000000000
  ModflowPackages.FarmProcess.RecomputeOption = roNotComputed
  ModflowPackages.FarmProcess.AssignmentMethod = umAssign
  ModflowPackages.FarmProcess.ResetMnwQMax = False
  ModflowPackages.FarmProcess.MnwClose = False
  ModflowPackages.FarmProcess.StoredMnwClosureCriterion.Value = 0.000001000000000000
  ModflowPackages.FarmProcess.StoredHeadChangeReduction.Value = 0.100000000000000000
  ModflowPackages.FarmProcess.StoredResidualChangeReduction.Value = 0.100000000000000000
  ModflowPackages.FarmProcess.StoredPsiRampf.Value = 0.100000000000000000
  ModflowPackages.FarmProcess.StoredSatThick.Value = 0.100000000000000000
  ModflowPackages.ConduitFlowProcess.IsSelected = False
  ModflowPackages.ConduitFlowProcess.PipesUsed = False
  ModflowPackages.ConduitFlowProcess.ConduitLayersUsed = True
  ModflowPackages.ConduitFlowProcess.ConduitRechargeUsed = False
  ModflowPackages.ConduitFlowProcess.StoredConduitTemperature.Value = 25.000000000000000000
  ModflowPackages.ConduitFlowProcess.CfpElevationChoice = cecIndividual
  ModflowPackages.ConduitFlowProcess.StoredElevationOffset.Value = 0.000000000000000000
  ModflowPackages.ConduitFlowProcess.CfpExchange = ceNodeConductance
  ModflowPackages.ConduitFlowProcess.StoredEpsilon.Value = 0.000000000100000000
  ModflowPackages.ConduitFlowProcess.MaxIterations = 1000
  ModflowPackages.ConduitFlowProcess.StoredRelax.Value = 1.000000000000000000
  ModflowPackages.ConduitFlowProcess.CfpPrintIterations = cpiPrint
  ModflowPackages.ConduitFlowProcess.StoredLayerTemperature.Value = 25.000000000000000000
  ModflowPackages.ConduitFlowProcess.OutputInterval = 1
  ModflowPackages.SwiPackage.IsSelected = False
  ModflowPackages.SwiPackage.NumberOfSurfaces = 1
  ModflowPackages.SwiPackage.DensityChoice = dcLinear
  ModflowPackages.SwiPackage.SaveZeta = True
  ModflowPackages.SwiPackage.ObsChoice = socNone
  ModflowPackages.SwiPackage.Adaptive = False
  ModflowPackages.SwiPackage.Solver = ssDirect
  ModflowPackages.SwiPackage.SolverPrintoutInterval = 1
  ModflowPackages.SwiPackage.SolverPrintChoice = sspcTables
  ModflowPackages.SwiPackage.NPCOND = pmCholesky
  ModflowPackages.SwiPackage.ZCLOSE.Value = 0.001000000000000000
  ModflowPackages.SwiPackage.RCLOSE.Value = 0.001000000000000000
  ModflowPackages.SwiPackage.RELAX.Value = 1.000000000000000000
  ModflowPackages.SwiPackage.NBPOL = peeEstimate
  ModflowPackages.SwiPackage.DAMP.Value = 1.000000000000000000
  ModflowPackages.SwiPackage.DAMPT.Value = 1.000000000000000000
  ModflowPackages.SwiPackage.ToeSlope.Value = 0.040000000000000000
  ModflowPackages.SwiPackage.TipSlope.Value = 0.040000000000000000
  ModflowPackages.SwiPackage.Alpha.Value = 0.100000000000000000
  ModflowPackages.SwiPackage.Beta.Value = 0.100000000000000000
  ModflowPackages.SwiPackage.MaxAdaptiveTimeSteps = 10
  ModflowPackages.SwiPackage.MinAdaptiveTimeSteps = 1
  ModflowPackages.SwiPackage.AdaptiveFactor.Value = 0.500000000000000000
  ModflowPackages.SwiPackage.ZoneDimensionlessDensities = <
    item
      Value = 0.000000000000000000
    end
    item
      Value = 0.000000000000000000
    end
    item
      Value = 0.000000000000000000
    end>
  ModflowPackages.SwiPackage.ModflowPrecision = mpSingle
  ModflowPackages.SwrPackage.IsSelected = True
  ModflowPackages.SwrPackage.OnlyUseSWR = False
  ModflowPackages.SwrPackage.ContinueDespiteNonConvergence = True
  ModflowPackages.SwrPackage.UseUpstreamWeightingForDiffusiveWave = False
  ModflowPackages.SwrPackage.UseInexactNewton = False
  ModflowPackages.SwrPackage.UseSteadyStateStorage = False
  ModflowPackages.SwrPackage.UseLaggedStagesAndFlows = False
  ModflowPackages.SwrPackage.UseLinearDepthScaling = False
  ModflowPackages.SwrPackage.Scaling = ssNone
  ModflowPackages.SwrPackage.Reordering = srNone
  ModflowPackages.SwrPackage.NewtonCorrection = sncExplicit
  ModflowPackages.SwrPackage.StoredInitialTimeStepLength.Value = 0.006944400000000000
  ModflowPackages.SwrPackage.StoredMinTimeStepLength.Value = 0.000347220000000000
  ModflowPackages.SwrPackage.StoredMaxTimeStepLength.Value = 0.006944400000000000
  ModflowPackages.SwrPackage.StoredTimeStepMultiplier.Value = 1.010000000000000000
  ModflowPackages.SwrPackage.TimeStepIncreaseFrequency = 10
  ModflowPackages.SwrPackage.StoredMinGradientForDiffusiveFlow.Value = 0.000000000001000000
  ModflowPackages.SwrPackage.StoredMinGradientForDiffusiveFlow.StringValue = '1E-12'
  ModflowPackages.SwrPackage.StoredMinDepthForOutflow.Value = 0.001000000000000000
  ModflowPackages.SwrPackage.StoredMaxRainfallForStepAdjustment.Value = 0.152400000000000000
  ModflowPackages.SwrPackage.StoredMaxStageChangePerStep.Value = 0.500000000000000000
  ModflowPackages.SwrPackage.StoredMaxInflowChange.Value = 0.000000000000000000
  ModflowPackages.SwrPackage.RainSpecification = smArray
  ModflowPackages.SwrPackage.EvapSpecification = smObject
  ModflowPackages.SwrPackage.LateralInflowSpecification = smArray
  ModflowPackages.SwrPackage.StageSpecification = smObject
  ModflowPackages.SwrPackage.PrintInflowsAndOutflows = spoBinary
  ModflowPackages.SwrPackage.PrintStage = spoASCII
  ModflowPackages.SwrPackage.PrintReachExchangeAndProperties = spoBinary
  ModflowPackages.SwrPackage.PrintReachLateralFlow = spoNone
  ModflowPackages.SwrPackage.PrintStructureFlow = spoNone
  ModflowPackages.SwrPackage.PrintMaxFroude = False
  ModflowPackages.SwrPackage.PrintSwrDataToScreen = False
  ModflowPackages.SwrPackage.SaveSwrTimeStepLength = spoNone
  ModflowPackages.SwrPackage.SaveAverageSimulatedResults = False
  ModflowPackages.SwrPackage.SaveConvergenceHistory = True
  ModflowPackages.SwrPackage.SaveRiver = ssrSaveAll
  ModflowPackages.SwrPackage.SaveObs = ssoSaveObs
  ModflowPackages.SwrPackage.ObsFormat = swofAscii
  ModflowPackages.SwrPackage.StoredSaveFrequency.Value = 1.000000000000000000
  ModflowPackages.SwrPackage.Solver = ssBi_CGSTAB
  ModflowPackages.SwrPackage.MaxOuterIterations = 31
  ModflowPackages.SwrPackage.MaxInnerIterations = 100
  ModflowPackages.SwrPackage.MaxLineSearchIterations = 10
  ModflowPackages.SwrPackage.StoredStageTolerance.Value = 0.000000001000000000
  ModflowPackages.SwrPackage.FlowToleranceOption = rtoNone
  ModflowPackages.SwrPackage.StoredFlowTolerance.Value = 86.400000000000010000
  ModflowPackages.SwrPackage.ExchangeToleranceOption = etNone
  ModflowPackages.SwrPackage.StoredExchangeTolerance.Value = 0.010000000000000000
  ModflowPackages.SwrPackage.StoredSteadyStateDampingFactor.Value = 1.000000000000000000
  ModflowPackages.SwrPackage.StoredTransientDampingFactor.Value = 1.000000000000000000
  ModflowPackages.SwrPackage.ConvergencePrintoutInterval = 0
  ModflowPackages.SwrPackage.PrintConvergence = spcPrintMaxResidual
  ModflowPackages.SwrPackage.Preconditioner = spMilu