# Name File for MODFLOW created on 12/19/2013 by ModelMuse
LIST 11 SfrTest7.lst REPLACE
DATA(BINARY) 9 SfrTest7.cbc REPLACE
DIS 12 SfrTest7.dis OLD
BAS6 13 SfrTest7.bas OLD
OC 39 SfrTest7.oc OLD
DATA 37 SfrTest7.fhd REPLACE
DATA 38 SfrTest7.fdn REPLACE
PCG 18 SfrTest7.pcg OLD
LPF 14 SfrTest7.lpf OLD
SFR 29 SfrTest7.sfr OLD
