<?xml version="1.0" encoding="UTF-8"?>
<?xml-stylesheet type="text/xsl" href="../helpproject.xsl" ?>
<topic template="Default" modified="2022-01-19T16:36:44.522-05:00" lasteditedby="rbwinst" xmlns:xsi="http://www.w3.org/2001/XMLSchema-instance" xsi:noNamespaceSchemaLocation="../helpproject.xsd">
  <title translate="true">HUF2: Hydrogeologic Unit Flow Package Pane</title>
  <body>
    <header>
      <para styleclass="Heading1"><text styleclass="Heading1" translate="true">HUF2: Hydrogeologic Unit Flow Package Pane</text></para>
    </header>
    <para styleclass="Normal"><text styleclass="Normal" translate="true">The Hydrogeologic Unit Flow (HUF2) package is one of several packages in MODFLOW that can be used to simulate flow in the saturated zone. The pane for this package is on the </text><link displaytype="text" defaultstyle="true" type="topiclink" href="MODFLOW_Packages_Dialog_Box" styleclass="Normal" style="font-weight:bold;" translate="true">MODFLOW Packages and Programs</link><text styleclass="Normal" translate="true"> dialog box under </text><link displaytype="text" defaultstyle="true" type="topiclink" href="Flow_Packages" styleclass="Normal" style="font-weight:bold;" translate="true">Flow Packages</link><text styleclass="Normal" translate="true">. </text></para>
    <para styleclass="Normal"><text styleclass="Normal" translate="true">In the Hydrogeologic Unit Flow package, aquifer properties are assigned by hydrogeologic units (defined in the </text><link displaytype="text" defaultstyle="true" type="topiclink" href="MODFLOW_Hydrogeologic_Units" styleclass="Strong" translate="true">MODFLOW Hydrogeologic Units</link><text styleclass="Normal" translate="true"> dialog box) rather than by layer. MODFLOW then uses the top elevations and thickness of the hydrogeologic units to determine how much each hydrogeologic unit should contribute to the hydraulic properties of individual cells. In convertible layers, the contribution of individual hydrogeologic units can change through the course of the simulation as the water table changes.</text></para>
    <para styleclass="Normal"><text styleclass="Normal" translate="true">The ability to define aquifer properties by hydrogeologic unit rather than by layer makes the Hydrogeologic Unit Flow package particularly well suited for modeling complex geology.</text></para>
    <para styleclass="Normal"><text styleclass="Normal" translate="true">The hydraulic properties of the hydrogeologic units must be defined through parameters; the Hydrogeologic Unit Flow package does not provide a method of defining hydraulic properties just as an array of numbers.</text></para>
    <para styleclass="Normal"><text styleclass="Normal" translate="true">The Hydrogeologic Unit Flow package provides options for saving the heads and flows for each hydrogeologic unit. These values are calculated by combining the heads and flows in individual cells intersected by each hydrogeologic unit. To activate these options, the </text><text styleclass="Strong" translate="true">Save heads for hydrogeologic units (IOHUFHEADS)</text><text styleclass="Normal" translate="true"> or </text><text styleclass="Strong" translate="true">Save flows for hydrogeologic units (IOHUFFLOWS)</text><text styleclass="Normal" translate="true"> checkboxes can be checked.</text></para>
    <para styleclass="Normal"><text styleclass="Normal" translate="true">If any KDEP parameters are defined (see below), the user can choose whether the reference surface used to calculate depth is the top of the model or a separate array. The radio buttons in the group labeled </text><text styleclass="Strong" translate="true">Reference surface for calculating depth</text><text styleclass="Normal" translate="true">. If a separate array is chosen, the data set used to define the array will be named HUF_Reference_Surface.</text></para>
    <para styleclass="Normal"><text styleclass="Normal" translate="true">Parameters used in the Hydrogeologic Unit Flow package are defined in this pane. The types of parameters that can be defined are:</text></para>
    <list id="0" type="ul" listtype="bullet" formatstring="&#183;" format-charset="SYMBOL_CHARSET" levelreset="true" legalstyle="false" startfrom="1" styleclass="Normal" style="font-family:Symbol; font-size:12pt; color:#000000;">
      <li styleclass="Normal"><text styleclass="Normal" translate="true">HK – horizontal hydraulic conductivity. </text></li>
      <li styleclass="Normal"><text styleclass="Normal" translate="true">HANI – HANI, horizontal anisotropy (ratio of hydraulic conductivity along columns to hydraulic conductivity along rows). When using the LVDA capability, HANI values need to be less than or equal to 1. </text></li>
      <li styleclass="Normal"><text styleclass="Normal" translate="true">VK – vertical hydraulic conductivity, for units for which HGUVANI is set to zero. </text></li>
      <li styleclass="Normal"><text styleclass="Normal" translate="true">VANI – vertical anisotropy, for units for which HGUVANI is set greater than zero. If the Hydraulic-Conductivity Depth-Dependence Capability is used, the vertical hydraulic conductivity changes according to the changes in the horizontal hydraulic conductivity. </text></li>
      <li styleclass="Normal"><text styleclass="Normal" translate="true">SS – the specific storage. </text></li>
      <li styleclass="Normal"><text styleclass="Normal" translate="true">SY – the specific yield. </text></li>
      <li styleclass="Normal"><text styleclass="Normal" translate="true">SYTP – when all model layers are confined, defines the storage coefficient for the top active cell at each row, column location. The value specified is not multiplied by model layer thickness.</text></li>
      <li styleclass="Normal"><text styleclass="Normal" translate="true">KDEP – defines the depth-dependence coefficient used to modify horizontal hydraulic conductivity with depth for the hydrogeologic unit(s) specified in Item 4. NOTE: horizontal hydraulic conductivity is only modified for cells in units defined by depth-dependence parameters and not for other cells, so depth-dependence parameters do not need to be specified for the entire model.</text></li>
      <li styleclass="Normal"><text styleclass="Normal" translate="true">LVDA - defines the angle between the grid axis and the principal direction of horizontal hydraulic conductivity. Angle is positive in a clockwise direction with the positive x direction being zero. The angle can vary between –90 and 90 degrees. Hydraulic conductivity along the principal axis (Kmax of figure 2) is defined in the HUF Package input file by an HK parameter; the hydraulic conductivity along the minor axis (Kmin of figure 2 in the </text><link displaytype="text" defaultstyle="true" type="topiclink" href="LVDA" domain=".\ModflowGuide\ModflowGuide.hmxp" styleclass="Normal" translate="true">LVDA documentation</link><text styleclass="Normal" translate="true">) axis is defined by a HANI parameter in conjunction with the HK parameter. Using the LVDA capability, HANI values need to be less than or equal to 1.</text></li>
    </list>
    <para styleclass="Normal" style="text-indent:0px; margin-right:0px; margin-left:0px; tabstops:none;"><snippet src="Parameter_Names_and_Values" inline="false"/></para>
    <para styleclass="Normal" style="text-indent:0px; margin-right:0px; margin-left:0px; tabstops:none;"><text styleclass="Normal" translate="true">The Use Zone and Use Multiplier options are only available here for the SYTP and LVDA parameters. For the others, the use of zone or multiplier arrays are specified for each hydrogeologic unit in the </text><link displaytype="text" defaultstyle="true" type="topiclink" href="MODFLOW_Hydrogeologic_Units" styleclass="Strong" translate="true">MODFLOW Hydrogeologic Units</link><text styleclass="Normal" translate="true"> dialog box</text></para>
    <para styleclass="Normal" style="text-indent:0px; margin-right:0px; margin-left:0px; tabstops:none;"><snippet src="Multiplier_and_Zone_Arrays" inline="false"/></para>
    <para styleclass="Normal" style="text-indent:0px; margin-right:0px; margin-left:0px; tabstops:none;"><snippet src="Additive_Parameters" inline="false"/></para>
    <para styleclass="Normal" style="text-indent:0px; margin-right:0px; margin-left:0px; tabstops:none;"><snippet src="LinkToManageParameters" inline="false"/></para>
    <para styleclass="Normal" style="text-indent:0px; margin-right:0px; margin-left:0px; tabstops:none;"><text styleclass="Normal" translate="true">The input to the HUF2 package can be split into up to three different input files. If any KDEP parameters are defined, a separate input file will be created with data related to depth-dependent hydraulic conductivity. If any LVDA parameters are defined, a separate input file will be created with data related to variable-direction horizontal anisotropy. The remainder of the input for the HUF2 package is in the main input file for the HUF2 package.</text></para>
    <para styleclass="Normal" style="text-indent:0px; margin-right:0px; margin-left:0px; tabstops:none;"><text styleclass="Normal" translate="true">If the HUF2 package is selected but hydrogeologic units have not yet been defined, the </text><link displaytype="text" defaultstyle="true" type="topiclink" href="MODFLOW_Hydrogeologic_Units" styleclass="Strong" translate="true">MODFLOW Hydrogeologic Units</link><text styleclass="Normal" translate="true"> dialog box will be displayed after the OK button is pressed.</text></para>
    <para styleclass="Normal" style="text-indent:0px; margin-right:0px; margin-left:0px; tabstops:none;"><text styleclass="Normal" translate="true">ModelMuse has a number of functions for displaying data related to ModelMuse.</text></para>
    <para styleclass="Normal" style="text-indent:0px; margin-right:0px; margin-left:0px; tabstops:none;"><text styleclass="Normal" translate="true">The following functions are used to display the values assigned to hydrogeologic units.</text></para>
    <list id="1" type="ul" listtype="bullet" formatstring="&#183;" format-charset="SYMBOL_CHARSET" levelreset="true" legalstyle="false" startfrom="1" styleclass="Normal" style="text-indent:0px; margin-right:0px; margin-left:0px; tabstops:none; font-family:Symbol; font-size:12pt; color:#000000;">
      <li styleclass="Normal" style="text-indent:0px; margin-right:0px; margin-left:0px; tabstops:none;"><link displaytype="text" defaultstyle="true" type="topiclink" href="HGU_HANI" styleclass="Normal" translate="true">HGU_HANI</link></li>
      <li styleclass="Normal" style="text-indent:0px; margin-right:0px; margin-left:0px; tabstops:none;"><link displaytype="text" defaultstyle="true" type="topiclink" href="HGU_HK" styleclass="Normal" translate="true">HGU_HK</link></li>
      <li styleclass="Normal" style="text-indent:0px; margin-right:0px; margin-left:0px; tabstops:none;"><link displaytype="text" defaultstyle="true" type="topiclink" href="HGU_KDEP" styleclass="Normal" translate="true">HGU_KDEP</link></li>
      <li styleclass="Normal" style="text-indent:0px; margin-right:0px; margin-left:0px; tabstops:none;"><link displaytype="text" defaultstyle="true" type="topiclink" href="HGU_SS" styleclass="Normal" translate="true">HGU_SS</link></li>
      <li styleclass="Normal" style="text-indent:0px; margin-right:0px; margin-left:0px; tabstops:none;"><link displaytype="text" defaultstyle="true" type="topiclink" href="HGU_SY" styleclass="Normal" translate="true">HGU_SY</link></li>
      <li styleclass="Normal" style="text-indent:0px; margin-right:0px; margin-left:0px; tabstops:none;"><link displaytype="text" defaultstyle="true" type="topiclink" href="HGU_VANI" styleclass="Normal" translate="true">HGU_VANI</link></li>
      <li styleclass="Normal" style="text-indent:0px; margin-right:0px; margin-left:0px; tabstops:none;"><link displaytype="text" defaultstyle="true" type="topiclink" href="HGU_VK" styleclass="Normal" translate="true">HGU_VK</link></li>
    </list>
    <para styleclass="Normal" style="text-indent:0px; margin-right:0px; margin-left:0px; tabstops:none;"><text styleclass="Normal" translate="true">The following functions are used to display the values assigned to model cells.</text></para>
    <list id="2" type="ul" listtype="bullet" formatstring="&#183;" format-charset="SYMBOL_CHARSET" levelreset="true" legalstyle="false" startfrom="1" styleclass="Normal" style="text-indent:0px; margin-right:0px; margin-left:0px; tabstops:none; font-family:Symbol; font-size:12pt; color:#000000;">
      <li styleclass="Normal" style="text-indent:0px; margin-right:0px; margin-left:0px; tabstops:none;"><link displaytype="text" defaultstyle="true" type="topiclink" href="GetHuf_Average_Sy" styleclass="Normal" translate="true">GetHuf_Average_Sy</link></li>
      <li styleclass="Normal" style="text-indent:0px; margin-right:0px; margin-left:0px; tabstops:none;"><link displaytype="text" defaultstyle="true" type="topiclink" href="GetHuf_Interlayer_Kz" styleclass="Normal" translate="true">GetHuf_Interlayer_Kz</link></li>
      <li styleclass="Normal" style="text-indent:0px; margin-right:0px; margin-left:0px; tabstops:none;"><link displaytype="text" defaultstyle="true" type="topiclink" href="GetHufKx" styleclass="Normal" translate="true">GetHufKx</link></li>
      <li styleclass="Normal" style="text-indent:0px; margin-right:0px; margin-left:0px; tabstops:none;"><link displaytype="text" defaultstyle="true" type="topiclink" href="HGU_KDEP" styleclass="Normal" translate="true">HGU_KDEP</link></li>
      <li styleclass="Normal" style="text-indent:0px; margin-right:0px; margin-left:0px; tabstops:none;"><link displaytype="text" defaultstyle="true" type="topiclink" href="HGU_SS" styleclass="Normal" translate="true">HGU_SS</link></li>
      <li styleclass="Normal" style="text-indent:0px; margin-right:0px; margin-left:0px; tabstops:none;"><link displaytype="text" defaultstyle="true" type="topiclink" href="HGU_SY" styleclass="Normal" translate="true">HGU_SY</link></li>
      <li styleclass="Normal" style="text-indent:0px; margin-right:0px; margin-left:0px; tabstops:none;"><link displaytype="text" defaultstyle="true" type="topiclink" href="HGU_VANI" styleclass="Normal" translate="true">HGU_VANI</link></li>
      <li styleclass="Normal" style="text-indent:0px; margin-right:0px; margin-left:0px; tabstops:none;"><link displaytype="text" defaultstyle="true" type="topiclink" href="HGU_VK" styleclass="Normal" translate="true">HGU_VK</link></li>
    </list>
  </body>
</topic>
