<?xml version="1.0" encoding="UTF-8"?>
<?xml-stylesheet type="text/xsl" href="../helpproject.xsl" ?>
<topic template="Default" lasteditedby="rbwinst" xmlns:xsi="http://www.w3.org/2001/XMLSchema-instance" xsi:noNamespaceSchemaLocation="../helpproject.xsd">
  <title translate="true">Stage in SWR: Surface-Water Routing Process</title>
  <body>
    <header>
      <para styleclass="Heading1"><text styleclass="Heading1" translate="true">Stage in SWR: Surface-Water Routing Process</text></para>
    </header>
    <para styleclass="Normal"><text styleclass="Normal" translate="true">The </text><text styleclass="Strong" translate="true">Stage in SWR: Surface-Water Routing Process</text><text styleclass="Normal" translate="true"> pane is on the </text><link displaytype="text" defaultstyle="true" type="topiclink" href="MODFLOW_Features_Tab" styleclass="Normal" style="font-weight:bold;" translate="true">MODFLOW Features</link><text styleclass="Normal" translate="true"> tab of the </text><link displaytype="text" defaultstyle="true" type="topiclink" href="Object_Properties_Dialog_Box" styleclass="Normal" style="font-weight:bold;" translate="true">Object Properties</link><text styleclass="Normal" translate="true"> dialog box.</text></para>
    <para styleclass="Normal"><text styleclass="Normal" style="font-weight:bold;" translate="true">Starting time</text><text styleclass="Normal" translate="true"> and </text><text styleclass="Normal" style="font-weight:bold;" translate="true">Ending time</text><text styleclass="Normal" style="font-weight:normal;" translate="true"> are explained in the help for the </text><link displaytype="text" defaultstyle="true" type="topiclink" href="MODFLOW_Features_Tab" anchor="Times" styleclass="Normal" style="font-weight:bold;" translate="true">MODFLOW Features</link><text styleclass="Normal" translate="true"> tab.</text></para>
    <para styleclass="Normal"><anchor id="STAGE2D" styleclass="Strong"></anchor><text styleclass="Strong" translate="true">SWR Stage (STAGE2D)</text><text styleclass="Normal" translate="true">: STAGE2D defineS the stage for each reach in model grid cell (in units of length). On the first stress period, STAGE2D represents initial stages for the surface-water system. For subsequent stress periods, STAGE2D is used to change the stage in constant-stage reaches (</text><link displaytype="text" defaultstyle="true" type="topiclink" href="Reaches_in_SWR_Surface_Water_R" anchor="ISWRBND" styleclass="Normal" translate="true">ISWRBND</link><text styleclass="Normal" translate="true"> &lt; 0) and/or reach offsets for reaches using the tilted-pool reservoir-routing approximation(</text><link displaytype="text" defaultstyle="true" type="topiclink" href="Reaches_in_SWR_Surface_Water_R" anchor="IROUTETYPE" styleclass="Normal" translate="true">IROUTETYPE</link><text styleclass="Normal" translate="true"> = 2) to simulate surface-water flow.</text></para>
  </body>
</topic>
