unit ExtractUnit;

interface

uses
  Windows, Messages, SysUtils, Classes, Graphics, Controls, Forms, Dialogs,
  StdCtrls, ArgusDataEntry, Menus, Grids, Buttons, TeeProcs, TeEngine,
  Chart, ExtCtrls, Series, DataGrid, ComCtrls, MyFormUnit, TeeEdit,
  ReaderUnit, addbtn95, JvExStdCtrls, JvRichEdit, VclTee.TeeGDIPlus;

{ TODO : Tracy wrote  that he would like GWChart to calculate
"elevation head" instead of, or in addition to, pressure head, but I'm sure
he meant "total head."  Sounds like a good idea to me, since we typically
are concerned with total hydraulic head, not pressure head. Alden Provost,
April 11, 2006}

type
  TSutraCoordType = (sct2D, sct3D);

  TProgramChoice = (pcModflow, pcMt3dObs, pcMt3dConc, pcGwtObs, pcSutra1,
    pcsutra2, pcSutra2_1, pcHydMode, pcMf6Obs);
//MODFLOW head or drawdown file
//MT3D Observations
//GWT and MOC3D Observations
//SUTRA 09.97
//SUTRA 2D/3D
//SUTRA 2.1, SUTRA 2.2
//MODFLOW Hydmod package



  TSutraCoord = record
    X: double;
    Y: double;
    Z: Double;
    CoordType: TSutraCoordType;
  end;

  TSutraCoordArray = array of TSutraCoord;

  TfrmExtract = class(TMyForm)
    SaveDialog1: TSaveDialog;
    OpenDialog1: TOpenDialog;
    MainMenu1: TMainMenu;
    About1: TMenuItem;
    Panel1: TPanel;
    Help1: TMenuItem;
    Panel2: TPanel;
    lblCount: TLabel;
    btnRead: TButton;
    btnSave: TButton;
    btnCancel: TButton;
    BitBtn1: TBitBtn;
    Splitter1: TSplitter;
    adeCellCount: TArgusDataEntry;
    File1: TMenuItem;
    ReadCellLocations1: TMenuItem;
    ReadHeadsorDrawdown1: TMenuItem;
    SaveCellLocations1: TMenuItem;
    SaveHeadsorDrawdown1: TMenuItem;
    SaveDialog2: TSaveDialog;
    dgDataPoints: TEcDataGrid;
    OpenDialog2: TOpenDialog;
    rgProgramChoice: TRadioGroup;
    rgMOC3D: TRadioGroup;
    rgSutra: TRadioGroup;
    dgDataNodes: TEcDataGrid;
    sbFormat: TSpeedButton;
    sbImage: TSpeedButton;
    ChartHydExtractor: TChart;
    SaveasImage1: TMenuItem;
    Exit1: TMenuItem;
    FormatChart1: TMenuItem;
    Help2: TMenuItem;
    Splitter2: TSplitter;
    ChartEditor1: TChartEditor;
    cbPlot: TCheckBox95;
    comboUnits: TComboBox;
    edExplanation: TEdit;
    lblLegend: TLabel;
    adeDensity: TArgusDataEntry;
    adeG: TArgusDataEntry;
    Label1: TLabel;
    Label2: TLabel;
    RichEdit1: TJvRichEdit;
    btnPlotAll: TButton;
    btnPlotNone: TButton;
    procedure btnSaveClick(Sender: TObject);
    procedure About1Click(Sender: TObject);
    procedure btnCancelClick(Sender: TObject);
    procedure btnReadClick(Sender: TObject);
    procedure FormCreate(Sender: TObject);
    procedure sgDataPointsSetEditText(Sender: TObject; ACol, ARow: Integer;
      const Value: string);
    procedure sgDataPointsSelectCell(Sender: TObject; Col, Row: Integer;
      var CanSelect: Boolean);
    procedure adeCellCountChange(Sender: TObject);
    procedure FormDestroy(Sender: TObject);
    procedure Help1Click(Sender: TObject);
    procedure ReadCellLocations1Click(Sender: TObject);
    procedure SaveCellLocations1Click(Sender: TObject);
    procedure dgDataPointsSetEditText(Sender: TObject; ACol, ARow: Integer;
      const Value: string);
    procedure rgProgramChoiceClick(Sender: TObject);
    procedure rgMOC3DClick(Sender: TObject);
    procedure dgDataNodesSetEditText(Sender: TObject; ACol, ARow: Integer;
      const Value: string);
    procedure rgSutraClick(Sender: TObject);
    procedure sbFormatClick(Sender: TObject);
    procedure ToolBar1MouseMove(Sender: TObject;
      Shift: TShiftState; X, Y: Integer);
    procedure sbImageClick(Sender: TObject);
    procedure Exit1Click(Sender: TObject);
    procedure FormClose(Sender: TObject; var Action: TCloseAction);
    procedure FormShow(Sender: TObject);
    procedure ChartHydExtractorAfterDraw(Sender: TObject);
    procedure ChartHydExtractorGetLegendPos(Sender: TCustomChart; Index:
      Integer;
      var X, Y, XColor: Integer);
    procedure ChartHydExtractorGetLegendRect(Sender: TCustomChart; var Rect:
      TRect);
    procedure comboUnitsChange(Sender: TObject);
    procedure edExplanationChange(Sender: TObject);
    procedure dgDataNodesExit(Sender: TObject);
    procedure btnPlotAllClick(Sender: TObject);
    procedure btnPlotNoneClick(Sender: TObject);
  private
    ExplanationVisible: boolean;
    ExplanationLeft, ExplanationTop: integer;
    function GetStringBetween(var AString: string; Before, After: string):
      string;
    function GetNextLine(SearchTerm: string; Start: integer;
      AStringList: TStringList): integer;
    procedure ReadFile;
    procedure ClearNodeSelection;
    procedure ReadNewSutraFile2;
    procedure ReadHydmodFile;
    procedure SetAllPlots(Value: Boolean);
    procedure GetSutraCoord(ALine: string; var Coord: TSutraCoordArray);
    procedure ReadMt3dConcFile;
    procedure ReadMf6Obs;
    { Private declarations }
  public
    CancelProcess: boolean;
    CurrentText: string;
    MySeriesList: TList;
    FLinesToSave: TStringList;
    procedure ClearSeriesList;
    procedure ReadCellLocations(FileName: string);
    procedure ReadModflowFile;
    procedure ReadMt3dObservationsFile;
    procedure ReadMoc3dObservationsFile;
    procedure ReadSutraFile;
    procedure ReadNewSutraFile;
    function Density: double; //  Density of pure water
    function G: double; // acceleration due to gravity.
    { Public declarations }
  end;

var
  frmExtract: TfrmExtract;

implementation

uses {HelpUnit,} frmFormatUnit, frmAboutUnit, frmModChartUnit, 
  ReadModflowArrayUnit, Mf6ObsUtilOutputReaderUnit;

{$R *.DFM}

{var
  DecimalChar : Char;}

{function InternationalStrToFloat(Value : string) : extended;
var
  DecimalLocation : integer;
begin
  if DecimalChar = '.' then
  begin
    DecimalLocation := Pos(',',Value);
    if DecimalLocation > 0 then
    begin
      Value[DecimalLocation] := '.';
    end;
  end;
  if DecimalChar = ',' then
  begin
    DecimalLocation := Pos('.',Value);
    if DecimalLocation > 0 then
    begin
      Value[DecimalLocation] := ',';
    end;
  end;
  Result := StrToFloat(Value);
end; }

procedure TfrmExtract.ReadModflowFile;
const
  HeadLabel = 'HEAD';
  DrawdownLabel = 'DRAWDOWN';
  HGU_Label = 'HEAD IN HGU';
var
  ModflowOutput: TextFile; // the formatted head or drawdown file
  DescriptorLine: string; // line describing the model characteristics.
  ADatum: double; // a number read from the formatted head or drawdown file
  AString: string;
  TOTIM: double; // elapsed time
  NCOL, NROW, ILAY: integer;
    // the number of columns, number of rows and layer number
  ColIndex, RowIndex: integer; // indexes to the colums and rows
  PointsIndex: integer;
    // an index to the point for which a hydrograph is to be extracted.
  DataString: string;
    // This is used to store the formatted data that will be placed on a line of the TMemo
  ATime: double; // elapsed time for the current time step
  CaptionString: string;
  ASeries: TLineSeries; // a hydrograph plotted on the chart
//  RealArray: array of double; // an array of values read from
//  RealArrayLength: integer;
  ChartIndex: integer;
  Lines: TStringlist;
  ColorIndex: integer;
  PointCount: integer;
  PointIndex: integer;
  SeriesIndex: integer;
  Splitter: TStringList;
  FileStream: TFileStream;
  Precision: TModflowPrecision;
  KSTP: integer;
  KPER: integer;
  PERTIM: TModflowDouble;
  DESC: TModflowDesc;
  AnArray: TModflowDoubleArray;
  Columns, Rows, Layers: array of integer;
  DataArray: array of array of double;
  ItemIndex: Integer;
//  PosInFile: LongInt;
//  AnErrorLine: string;
begin
  //  Put the name of the file on the caption of the form.
  Caption := 'GW_Chart: ' + OpenDialog1.FileName;
  // disable thing that shouldn't be changed while reading the file.
  btnSave.Enabled := True;
  btnCancel.Enabled := True;
  btnRead.Enabled := False;
  adeCellCount.Enabled := False;
  dgDataPoints.Enabled := False;
  Lines := TStringlist.Create;
  try
    begin
      // ClearSeriesList destroys all the TLineSeries on the chart and
      // clears SeriesList
      ClearSeriesList;

      // initialize CancelProcess. CancelProcess will be tested while the
      // file is being read to see if the user has pressed the cancel button.
      CancelProcess := False;

      // initialize the memo
      RichEdit1.Clear;
      Lines.Add(Chr(9) + '(Column,Row,Layer)');

      // create a headers for the data in the memo and create a TLineSeries
      // for each MODFLOW cell.
      AString := 'Time';
      ColorIndex := -1;

      for RowIndex := 1 to dgDataPoints.RowCount - 1 do
      begin
        Inc(ColorIndex);
        if ColorIndex >= Length(ColorPalette) then
        begin
          ColorIndex := 0;
        end;
        CaptionString := '(' + dgDataPoints.Cells[0, RowIndex] + ',' +
          dgDataPoints.Cells[1, RowIndex] + ',' +
          dgDataPoints.Cells[2, RowIndex] + ')';
        AString := AString + Chr(9) + CaptionString;

        ASeries := TLineSeries.Create(ChartHydExtractor);
        ASeries.XValues.Order := loNone;
        ASeries.SeriesColor := ColorPalette[ColorIndex];
        ASeries.ParentChart := ChartHydExtractor;
        MySeriesList.Add(ASeries);
        ASeries.Title := CaptionString;
        ASeries.Pointer.Visible := True;
        ASeries.Active := cbPlot.Checked and (dgDataPoints.Cells[3, RowIndex]
          = dgDataPoints.Columns[3].PickList.Strings[1]);
        ASeries.BeginUpdate;
      end;
      //    Memo1.Lines.Add(AString);
      Lines.Add(AString);

      // this may take a while so change the cursor.

      Screen.Cursor := crHourGlass;
      try

        SetLength(Columns, dgDataPoints.RowCount - 1);
        SetLength(Rows, dgDataPoints.RowCount - 1);
        SetLength(Layers, dgDataPoints.RowCount - 1);
        for PointsIndex := 1 to dgDataPoints.RowCount - 1 do
        begin
          Columns[PointsIndex-1] := StrToInt(dgDataPoints.Cells[0, PointsIndex]);
          Rows[PointsIndex-1] := StrToInt(dgDataPoints.Cells[1, PointsIndex]);
          Layers[PointsIndex-1] := StrToInt(dgDataPoints.Cells[2, PointsIndex]);
        end;


        // create an array of reals used for temporary storage of data read from the
        // file.
//        RealArrayLength := StrToInt(frmExtract.adeCellCount.Text);
//        SetLength(RealArray, RealArrayLength);
        if OpenDialog1.FilterIndex in [1,4] then
        begin
          FileStream := TFileStream.Create(OpenDialog1.FileName,
            fmOpenRead	or fmShareDenyWrite);
          try
            if CheckArrayFileType(FileStream) = mftFormatted then
            begin
              OpenDialog1.FilterIndex := 1;
            end
            else
            begin
              OpenDialog1.FilterIndex := 4;
            end;
          finally
            FileStream.Free;
          end;

        end;

        if OpenDialog1.FilterIndex in [1,2,3,6] then
        begin
          // Formatted file.
          
          // This opens the formatted head or drawdown file.
          AssignFile(ModflowOutput, OpenDialog1.FileName);
          // start reading the MODFLOW file at the beginning
          Reset(ModflowOutput);

          try
            begin
              while not Eof(ModflowOutput) do
              begin
                // if the user has pressed the cancel button, stop reading the file.
                Application.ProcessMessages;
                if CancelProcess then
                begin
                  break;
                end;
                // read the descriptor line at the beginning of the array
                Readln(ModflowOutput, DescriptorLine);
                // if the line is empty you've reached the end of the file so stop.
                if DescriptorLine = '' then
                begin
                  break;
                end;
                // check if this is a head or drawdown file.
                // quit if it is neither.
                if (Pos(HGU_Label, DescriptorLine) <= 0)
                  and (Pos(HeadLabel, DescriptorLine) <= 0)
                  and (Pos(DrawdownLabel, DescriptorLine) <= 0) then
                begin
                  Beep;
                  ShowMessage('Unable to read file');
                  Exit;
                end;
                Splitter := TStringList.Create;
                try
                  Splitter.Delimiter := ' ';
                  Splitter.DelimitedText := DescriptorLine;

                  // The revised code expects each of the inputs to be
                  // separated from the next by at least one space.
                  // If the number of rows, columns, or layers is >= 100000,
                  // this may not be true.

                  // get the elapsed time- 4'th item.
                  AString := Splitter[3];
                  TOTIM := InternationalStrToFloat(AString);
                  // get the number of columns - 6'th item
                  AString := Splitter[5];
                  NCOL := StrToInt(AString);
                  // get the number of rows - 7'th item
                  AString := Splitter[6];
                  NROW := StrToInt(AString);
                  // get the layer number - 8'th item
                  AString := Splitter[7];
                  ILAY := StrToInt(AString);
//                  if ILAY <= 0 then
//                  begin
//                    NROW := Abs(ILAY);
//                  end;


                  SetLength(DataArray, NROW, NCOL);

                  // Set the time to the total elapased time.
                  ATime := TOTIM;
                  AString := '';
                  ItemIndex := 0;
                  Splitter.Clear;
                  for RowIndex := 1 to NROW do
                  begin
                    // if the user pressed the cancel button, quit.
                    Application.ProcessMessages;
                    if CancelProcess then
                    begin
                      break;
                    end;
                    for ColIndex := 1 to NCOL do
                    begin
                      // if the user pressed the cancel button, quit.
                      Application.ProcessMessages;
                      if CancelProcess then
                      begin
                        break;
                      end;
                      // don't try to read past the end of the file.
                      if not Eof(ModflowOutput) then
                      begin
                        // allow the application to respond to the user pressing the cancel button.
                        Application.ProcessMessages;
                        // if the user pressed the cancel button, quit.
                        if CancelProcess then
                        begin
                          break;
                        end;
                        // read a number from the MODFLOW file
//                        Read(ModflowOutput, ADatum);

                        if ItemIndex >= Splitter.Count then
                        begin
                          Readln(ModflowOutput, AString);
                          Splitter.DelimitedText := Trim(AString);
                          ItemIndex := 0;
                        end;
                        Assert(ItemIndex < Splitter.Count);
                        ADatum := FortranStrToFloat(Splitter[ItemIndex]);
                        Inc(ItemIndex);

                        DataArray[RowIndex-1, ColIndex-1] := ADatum;
                        // Check if this is one of the data point we need to check.
                        // (This could be made faster by moving the String to integer
                        // conversion outside the loops.)
                      end
                      else
                      begin
                        // quit if you've reached the end of the file
                        break;
                      end;
                    end;
                  end;
                finally
                  Splitter.Free;
                end;
                // read the rest of the last line after the last number in the array.
//                Readln(ModflowOutput, AString);

                for PointsIndex := 1 to dgDataPoints.RowCount - 1 do
                begin
                  if (ILAY = Layers[PointsIndex-1]) or (ILAY < 0) then
                  begin
                    // Add the data point to the appropriate TLineSeries
                    ColIndex := Columns[PointsIndex-1];
                    if ILAY < 0 then
                    begin
                      RowIndex := Layers[PointsIndex-1];
                    end
                    else
                    begin
                      RowIndex := Rows[PointsIndex-1];
                    end;
                    ADatum := DataArray[RowIndex-1, ColIndex-1];
                    ASeries := MySeriesList[PointsIndex - 1];
                    ASeries.AddXY(ATime, ADatum, '', clTeeColor);
                  end;
                end;


              end;
            end;

          finally
            begin

              // close the MODFLOW file
              CloseFile(ModflowOutput);


            end;
          end;
        end
        else
        begin
          // binary file.
          FileStream := TFileStream.Create(OpenDialog1.FileName,
            fmOpenRead	or fmShareDenyWrite);
          try
            Precision := CheckArrayPrecision(FileStream);
            While FileStream.Position < FileStream.Size do
            begin
              case Precision of
                mpSingle:
                  begin
                    ReadSinglePrecisionModflowBinaryRealArray(FileStream,
                      KSTP, KPER, PERTIM, TOTIM, DESC, NCOL, NROW, ILAY, AnArray);
                  end;
                mpDouble:
                  begin
                    ReadDoublePrecisionModflowBinaryRealArray(FileStream,
                      KSTP, KPER, PERTIM, TOTIM, DESC, NCOL, NROW, ILAY, AnArray);
                  end;
              else Assert(False);
              end;

              ATime := TOTIM;
              for PointsIndex := 1 to dgDataPoints.RowCount - 1 do
              begin
                if (ILAY = Layers[PointsIndex-1]) or (ILAY < 0) then
                begin
                  ColIndex := Columns[PointsIndex-1]-1;
                  if ILAY < 0 then
                  begin
                    RowIndex := Layers[PointsIndex-1]-1;
                  end
                  else
                  begin
                    RowIndex := Rows[PointsIndex-1]-1;
                  end;
                  ADatum := AnArray[RowIndex, ColIndex];

                  // store the data value temporarily in RealArray
//                  RealArray[PointsIndex - 1] := ADatum;
                  // Add the data point to the appropriate TLineSeries
                  ASeries := MySeriesList[PointsIndex - 1];
                  ASeries.AddXY(ATime, ADatum, '', clTeeColor);
                end;
              end;
            end;

          finally
            FileStream.Free;
          end;
        end;
      finally
        // store the data in the memo.

        if MySeriesList.Count > 0 then
        begin
          ASeries := MySeriesList[0];
          PointCount := ASeries.Count;
          for PointIndex := 0 to PointCount -1 do
          begin
            DataString := '';
            for SeriesIndex := 0 to MySeriesList.Count -1 do
            begin
              ASeries := MySeriesList[SeriesIndex];
              if SeriesIndex = 0 then
              begin
                DataString := FloatToStr(ASeries.XValues[PointIndex])+ Chr(9);
              end;
              if PointIndex < ASeries.Count then
              begin
                DataString := DataString + FloatToStr(ASeries.YValues[PointIndex]);
              end
              else
              begin
                DataString := DataString + ' ';
              end;
              if SeriesIndex < MySeriesList.Count -1 then
              begin
                DataString := DataString + Chr(9);
              end;

            end;
            Lines.Add(DataString);
          end;
        end;
        RichEdit1.Lines.AddStrings(Lines);
        FLinesToSave.Assign(Lines);

        for ChartIndex := 0 to ChartHydExtractor.SeriesList.Count - 1 do
        begin
          ASeries
            {AChartSeries}:= ChartHydExtractor.Series[ChartIndex] as
              TLineSeries;
          ASeries.Active := dgDataPoints.Cells[3, ChartIndex + 1]
            = dgDataPoints.Columns[3].PickList.Strings[1];
          ASeries.EndUpdate;
        end;

        // restore the cursor
        Screen.Cursor := crDefault;
      end;
    end;
  finally
    // enable or disable controls as appropriate.
    btnCancel.Enabled := False;
    btnRead.Enabled := True;
    adeCellCount.Enabled := True;
    dgDataPoints.Enabled := True;
    Lines.Free;
    ChartHydExtractor.Invalidate;
    //    Chart1.Invalidate;
  end;

end;

procedure TfrmExtract.ReadMt3dObservationsFile;
const
  HeadLabel = 'HEAD';
  DrawdownLabel = 'DRAWDOWN';
var
  Mt3dObservations: TextFile; // the formatted head or drawdown file
  ADatum: double; // a number read from the formatted head or drawdown file
  AString: string;
  RowIndex: integer; // indexes to the colums and rows
  PointsIndex: integer;
    // an index to the point for which a hydrograph is to be extracted.
  DataString: string;
    // This is used to store the formatted data that will be placed on a line of the TMemo
  ATime: double; // elapsed time for the current time step
  CaptionString: string;
  ASeries: TLineSeries; // a hydrograph plotted on the chart
  RealArray: array of double; // an array of values read from
  RealArrayLength: integer;
  ALine: string;
  FoundEnd: boolean;
  LineIndex: integer;
  count: integer;
//  TimeStep: integer;
  TimeStep: string[6];
  Lines: TStringList;
  ColorIndex: integer;
  TimeString: string;
begin
  dgDataPoints.Visible := True;
  //  Put the name of the file on the caption of the form.
  Caption := 'GW_Chart: ' + OpenDialog1.FileName;
  // disable thing that shouldn't be changed while reading the file.
  btnSave.Enabled := True;
  btnCancel.Enabled := True;
  btnRead.Enabled := False;
  adeCellCount.Enabled := False;
  dgDataPoints.Enabled := False;
  Lines := TStringList.Create;
  try
    begin
      // ClearSeriesList destroys all the TLineSeries on the chart and
      // clears SeriesList
      ClearSeriesList;

      // initialize CancelProcess. CancelProcess will be tested while the
      // file is being read to see if the user has pressed the cancel button.
      CancelProcess := False;

      // initialize the memo
      RichEdit1.Clear;
      Lines.Add(Chr(9) + '(Column,Row,Layer)');

      // This opens the formatted head or drawdown file.
      AssignFile(Mt3dObservations, OpenDialog1.FileName);

      // start reading the MODFLOW file at the beginning
      Reset(Mt3dObservations);
      try
        // read title line
        readln(Mt3dObservations, ALine);
        if EOF(Mt3dObservations) then
        begin
          MessageDlg('The file is empty.', mtWarning, [mbOK], 0);
          Exit;
        end;
        Count := 0;

        LineIndex := 0;
        repeat
          begin
            readln(Mt3dObservations, ALine);
            Inc(Count);
            TimeString := Trim(Copy(ALine, 1, 20));
            FoundEnd := TimeString <> '';
            if not FoundEnd then
            begin
              ALine := Copy(ALine, 20, Length(ALine));
              while Length(ALine) > 0 do
              begin
                Inc(LineIndex);
                adeCellCount.Text := IntToStr(LineIndex);
                adeCellCountChange(adeCellCount);
                dgDataPoints.Cells[2, LineIndex] := Trim(Copy(ALine, 1, 4));
                dgDataPoints.Cells[1, LineIndex] := Trim(Copy(ALine, 5, 4));
                dgDataPoints.Cells[0, LineIndex] := Trim(Copy(ALine, 9, 4));
                ALine := Copy(ALine, 15, Length(ALine));
                dgDataPoints.Cells[3, LineIndex] :=
                  dgDataPoints.Columns[3].PickList[0];
              end;
            end;
          end
        until FoundEnd;

      finally
        CloseFile(Mt3dObservations);
      end;
      try
        // start reading the MODFLOW file at the beginning
        Reset(Mt3dObservations);

        for LineIndex := 1 to Count do
        begin
          readln(Mt3dObservations, ALine);
        end;

        // create a headers for the data in the memo and create a TLineSeries
        // for each MODFLOW cell.
        AString := 'Time';
        ColorIndex := -1;
        for RowIndex := 1 to dgDataPoints.RowCount - 1 do
        begin
          Inc(ColorIndex);
          if ColorIndex >= Length(ColorPalette) then
          begin
            ColorIndex := 0;
          end;

          CaptionString := '(' + dgDataPoints.Cells[0, RowIndex] + ',' +
            dgDataPoints.Cells[1, RowIndex] + ',' +
            dgDataPoints.Cells[2, RowIndex] + ')';
          AString := AString + Chr(9) + CaptionString;

          ASeries := TLineSeries.Create(ChartHydExtractor);
          ASeries.XValues.Order := loNone;
          ASeries.SeriesColor := ColorPalette[ColorIndex];
          ASeries.ParentChart := ChartHydExtractor;
          MySeriesList.Add(ASeries);
          ASeries.Title := CaptionString;
          ASeries.Pointer.Visible := True;
          ASeries.Active := cbPlot.Checked and (dgDataPoints.Cells[3, RowIndex]
            = dgDataPoints.Columns[3].PickList.Strings[1]);
        end;
        //      Memo1.Lines.Add(AString);
        Lines.Add(AString);

        // this may take a while so change the cursor.
        Screen.Cursor := crHourGlass;

        RealArrayLength := StrToInt(frmExtract.adeCellCount.Text);
        SetLength(RealArray, RealArrayLength);
        try
          begin

            // we don't need to do something on the first time step that
            // we need to do on the others to initialize a variable that
            // can be checked to see if it is the first time step.
            while not Eof(Mt3dObservations) do
            begin
              // if the user has pressed the cancel button, stop reading the file.
              Application.ProcessMessages;
              if CancelProcess then
              begin
                break;
              end;

              Read(Mt3dObservations, TimeStep);
              Read(Mt3dObservations, ATime);
              if Eof(Mt3dObservations) then
              begin
                break;
              end;


              for RowIndex := 1 to dgDataPoints.RowCount - 1 do
              begin
                Read(Mt3dObservations, ADatum);
                RealArray[RowIndex - 1] := ADatum;
                // Add the data point to the appropriate TLineSeries
                ASeries := MySeriesList[RowIndex - 1];
                ASeries.AddXY(ATime, ADatum, '', clTeeColor);
              end;
              // read the rest of the last line after the last number in the array.
              Readln(Mt3dObservations, AString);

              // add that data to RichEdit1.
              DataString := FloatToStr(ATime);
              for PointsIndex := 0 to RealArrayLength - 1 do
              begin
                DataString := DataString + Chr(9) +
                  FloatToStr(RealArray[PointsIndex]);
              end;
              //            Memo1.Lines.Add(DataString);
              Lines.Add(DataString);

            end;
          end;

        finally
          begin
            RichEdit1.Lines.AddStrings(Lines);
            FLinesToSave.Assign(Lines);
            // restore the cursor
            Screen.Cursor := crDefault;
          end;
        end;
      finally
        CloseFile(Mt3dObservations);
      end;
    end;
  finally
    // enable or disable controls as appropriate.
    btnCancel.Enabled := False;
    btnRead.Enabled := True;
    adeCellCount.Enabled := True;
    dgDataPoints.Enabled := True;
    Lines.Free;
  end;

end;

procedure TfrmExtract.ReadFile;
begin
  ChartHydExtractor.BottomAxis.Automatic := True;
  ChartHydExtractor.LeftAxis.Automatic := True;
  case TProgramChoice(rgProgramChoice.ItemIndex) of
    pcModflow:
      begin
        ReadModflowFile;
        // This is placed in a separate procedure to facilitate
        // updating the program to read data from programs other than the
        // currently supported programs.
      end;
    pcMt3dObs:
      begin
        ReadMt3dObservationsFile;
        // This is placed in a separate procedure to facilitate
        // updating the program to read data from programs other than the
        // currently supported programs.
      end;
    pcMt3dConc:
      begin
        ReadMt3dConcFile;
      end;
    pcGwtObs:
      begin
        ReadMoc3dObservationsFile;
        // This is placed in a separate procedure to facilitate
        // updating the program to read data from programs other than the
        // currently supported programs.
      end;
    pcSutra1:
      begin
        ReadSutraFile;
        // This is placed in a separate procedure to facilitate
        // updating the program to read data from programs other than the
        // currently supported programs.
      end;
    pcsutra2:
      begin
        ReadNewSutraFile;
        // This is placed in a separate procedure to facilitate
        // updating the program to read data from programs other than the
        // currently supported programs.
      end;
    pcSutra2_1:
      begin
        ReadNewSutraFile2;
        // This is placed in a separate procedure to facilitate
        // updating the program to read data from programs other than the
        // currently supported programs.
      end;
    pcHydMode:
      begin
        ReadHydmodFile;
      end;
    pcMf6Obs:
      begin
        ReadMf6Obs;
      end;
  else
    begin
      Assert(False);
    end;
  end;
end;

procedure TfrmExtract.ReadMf6Obs;
var
  OutputFile: TMf6ObsOutputFile;