# Name File for MODFLOW created on 9/1/2009 by ModelMuse
LIST 11 ElevationImportTest.lst REPLACE
DATA(BINARY) 9 ElevationImportTest.cbc REPLACE
DIS 12 ElevationImportTest.dis OLD
BAS6 13 ElevationImportTest.bas OLD
OC 39 ElevationImportTest.oc OLD
DATA 37 ElevationImportTest.fhd REPLACE
DATA 38 ElevationImportTest.fdn REPLACE
PCG 18 ElevationImportTest.pcg OLD
LPF 14 ElevationImportTest.lpf OLD
CHD 17 ElevationImportTest.chd OLD
