unit ExtensionTypeUnit;

interface

uses Classes, sysUtils, Generics.Collections, Generics.Defaults;

Type
  TExtensionType = (etModelInput, etModelOutput, etModpathInput,
  etModpathOutput, etZoneBudgetInput, etZoneBudgetOutput, etMt3dmsInput,
  etMt3dmsOutput,
{$IFDEF SwiObsExtractor}
  etSwiObsExtInput, etSwiObsExtOutput,
{$ENDIF}
  etOtherInput,
  etOtherOutput, etAncillary);

  TExtensionObject = Class(TObject)
    Extension: string;
    ExtensionType: TExtensionType;
    Description: string;
  end;

  TExtensionList = class (TObjectList<TExtensionObject>)
  public
    procedure SetDefaultExtensions;
    procedure SortRecords;
    procedure SortFunction;
    procedure SortDescription;
  end;

var
  ExtensionTypeNames: TStringList;

function ExtractFileExtendedExt(FileName: string): string;

implementation

function ExtractFileExtendedExt(FileName: string): string;
var
  AnExt: string;
begin
  result := '';
  repeat
    AnExt := ExtractFileExt(FileName);
    result := AnExt + result;
//    result := ExtractFileExt(FileName);
    FileName := ChangeFileExt(FileName, '');
  until ((AnExt = '') or AnsiSameText(AnExt, '.reference'));
end;

{ TExtensionList }

procedure TExtensionList.SetDefaultExtensions;
var
  ExtRec: TExtensionObject;
begin
  Clear;

  ExtRec := TExtensionObject.Create;
  ExtRec.Extension := '.nam';
  ExtRec.ExtensionType := etModelInput;
  ExtRec.Description := 'MODFLOW Name file';
  Add(ExtRec);

  ExtRec := TExtensionObject.Create;
  ExtRec.Extension := '.nam.archive';
  ExtRec.ExtensionType := etModelInput;
  ExtRec.Description := 'MODFLOW Name file';
  Add(ExtRec);

  ExtRec := TExtensionObject.Create;
  ExtRec.Extension := '.mt_nam';
  ExtRec.ExtensionType := etMt3dmsInput;
  ExtRec.Description := 'MT3DMS or MT3D-USGS Name file';
  Add(ExtRec);

  ExtRec := TExtensionObject.Create;
  ExtRec.Extension := '.mnm';
  ExtRec.ExtensionType := etMt3dmsInput;
  ExtRec.Description := 'MT3DMS or MT3D-USGS Name file';
  Add(ExtRec);

  ExtRec := TExtensionObject.Create;
  ExtRec.Extension := '.mt_nam.archive';
  ExtRec.ExtensionType := etMt3dmsInput;
  ExtRec.Description := 'MT3DMS or MT3D-USGS Name file';
  Add(ExtRec);

  ExtRec := TExtensionObject.Create;
  ExtRec.Extension := '.mto';
  ExtRec.ExtensionType := etMt3dmsOutput;
  ExtRec.Description := 'MT3DMS or MT3D-USGS Observation Output file';
  Add(ExtRec);

  ExtRec := TExtensionObject.Create;
  ExtRec.Extension := '.jtf';
  ExtRec.ExtensionType := etModelInput;
  ExtRec.Description := 'Jupiter Template file';
  Add(ExtRec);

  ExtRec := TExtensionObject.Create;
  ExtRec.Extension := '.dis';
  ExtRec.ExtensionType := etModelInput;
  ExtRec.Description := 'MODFLOW Discretization file';
  Add(ExtRec);

  ExtRec := TExtensionObject.Create;
  ExtRec.Extension := '.bas';
  ExtRec.ExtensionType := etModelInput;
  ExtRec.Description := 'MODFLOW Basic Package input file';
  Add(ExtRec);

  ExtRec := TExtensionObject.Create;
  ExtRec.Extension := '.lpf';
  ExtRec.ExtensionType := etModelInput;
  ExtRec.Description := 'MODFLOW Layer Property Flow Package input file';
  Add(ExtRec);

  ExtRec := TExtensionObject.Create;
  ExtRec.Extension := '.zon';
  ExtRec.ExtensionType := etModelInput;
  ExtRec.Description := 'MODFLOW Zone Array input file';
  Add(ExtRec);

  ExtRec := TExtensionObject.Create;
  ExtRec.Extension := '.mlt';
  ExtRec.ExtensionType := etModelInput;
  ExtRec.Description := 'MODFLOW Mulitplier Array input file';
  Add(ExtRec);

  ExtRec := TExtensionObject.Create;
  ExtRec.Extension := '.chd';
  ExtRec.ExtensionType := etModelInput;
  ExtRec.Description := 'MODFLOW Time-Variant Specified Head Package input file';
  Add(ExtRec);

  ExtRec := TExtensionObject.Create;
  ExtRec.Extension := '.pcg';
  ExtRec.ExtensionType := etModelInput;
  ExtRec.Description := 'MODFLOW Preconditioned Conjugate Gradient Package input file';
  Add(ExtRec);

  ExtRec := TExtensionObject.Create;
  ExtRec.Extension := '.ghb';
  ExtRec.ExtensionType := etModelInput;
  ExtRec.Description := 'MODFLOW General Head Boundary Package input file';
  Add(ExtRec);

  ExtRec := TExtensionObject.Create;
  ExtRec.Extension := '.wel';
  ExtRec.ExtensionType := etModelInput;
  ExtRec.Description := 'MODFLOW Well Package input file';
  Add(ExtRec);

  ExtRec := TExtensionObject.Create;
  ExtRec.Extension := '.riv';
  ExtRec.ExtensionType := etModelInput;
  ExtRec.Description := 'MODFLOW River Package input file';
  Add(ExtRec);

  ExtRec := TExtensionObject.Create;
  ExtRec.Extension := '.drn';
  ExtRec.ExtensionType := etModelInput;
  ExtRec.Description := 'MODFLOW Drain Package input file';
  Add(ExtRec);

  ExtRec := TExtensionObject.Create;
  ExtRec.Extension := '.drt';
  ExtRec.ExtensionType := etModelInput;
  ExtRec.Description := 'MODFLOW Drain-Return Package input file';
  Add(ExtRec);

  ExtRec := TExtensionObject.Create;
  ExtRec.Extension := '.rch';
  ExtRec.ExtensionType := etModelInput;
  ExtRec.Description := 'MODFLOW Recharge Package input file';
  Add(ExtRec);

  ExtRec := TExtensionObject.Create;
  ExtRec.Extension := '.evt';
  ExtRec.ExtensionType := etModelInput;
  ExtRec.Description := 'MODFLOW Evapotranspiration Package input file';
  Add(ExtRec);

  ExtRec := TExtensionObject.Create;
  ExtRec.Extension := '.ets';
  ExtRec.ExtensionType := etModelInput;
  ExtRec.Description := 'MODFLOW Evapotranspiration Segments Package input file';
  Add(ExtRec);

  ExtRec := TExtensionObject.Create;
  ExtRec.Extension := '.res';
  ExtRec.ExtensionType := etModelInput;
  ExtRec.Description := 'MODFLOW Reservoir Package input file';
  Add(ExtRec);

  ExtRec := TExtensionObject.Create;
  ExtRec.Extension := '.lak';
  ExtRec.ExtensionType := etModelInput;
  ExtRec.Description := 'MODFLOW Lake Package input file';
  Add(ExtRec);

  ExtRec := TExtensionObject.Create;
  ExtRec.Extension := '.sfr';
  ExtRec.ExtensionType := etModelInput;
  ExtRec.Description := 'MODFLOW Streamflow Routing Package input file';
  Add(ExtRec);

  ExtRec := TExtensionObject.Create;
  ExtRec.Extension := '.uzf';
  ExtRec.ExtensionType := etModelInput;
  ExtRec.Description := 'MODFLOW Unsaturated Zone Flow Package input file';
  Add(ExtRec);

  ExtRec := TExtensionObject.Create;
  ExtRec.Extension := '.uzfg';
  ExtRec.ExtensionType := etModelOutput;
  ExtRec.Description := 'MODFLOW Unsaturated Zone Flow Package gage output file';
  Add(ExtRec);

  ExtRec := TExtensionObject.Create;
  ExtRec.Extension := '.gmg';
  ExtRec.ExtensionType := etModelInput;
  ExtRec.Description := 'MODFLOW Geometric Multigrid Flow Package input file';
  Add(ExtRec);

  ExtRec := TExtensionObject.Create;
  ExtRec.Extension := '.sip';
  ExtRec.ExtensionType := etModelInput;
  ExtRec.Description := 'MODFLOW Strongly Implicit Procedure Package input file';
  Add(ExtRec);

  ExtRec := TExtensionObject.Create;
  ExtRec.Extension := '.de4';
  ExtRec.ExtensionType := etModelInput;
  ExtRec.Description := 'MODFLOW Direct Solver Package input file';
  Add(ExtRec);

  ExtRec := TExtensionObject.Create;
  ExtRec.Extension := '.oc';
  ExtRec.ExtensionType := etModelInput;
  ExtRec.Description := 'MODFLOW Output Control input file';
  Add(ExtRec);

  ExtRec := TExtensionObject.Create;
  ExtRec.Extension := '.gag';
  ExtRec.ExtensionType := etModelInput;
  ExtRec.Description := 'MODFLOW Gage Package input file';
  Add(ExtRec);

  ExtRec := TExtensionObject.Create;
  ExtRec.Extension := '.ob_hob';
  ExtRec.ExtensionType := etModelInput;
  ExtRec.Description := 'MODFLOW Head Observation Package input file';
  Add(ExtRec);

  ExtRec := TExtensionObject.Create;
  ExtRec.Extension := '.hfb';
  ExtRec.ExtensionType := etModelInput;
  ExtRec.Description := 'MODFLOW Horizontal Flow Barrier Package input file';
  Add(ExtRec);

  ExtRec := TExtensionObject.Create;
  ExtRec.Extension := '.strt';
  ExtRec.ExtensionType := etModpathInput;
  ExtRec.Description := 'MODPATH Starting Locations input file';
  Add(ExtRec);

  ExtRec := TExtensionObject.Create;
  ExtRec.Extension := '.mpm';
  ExtRec.ExtensionType := etModpathInput;
  ExtRec.Description := 'MODPATH Main input file';
  Add(ExtRec);

  ExtRec := TExtensionObject.Create;
  ExtRec.Extension := '.mpbas';
  ExtRec.ExtensionType := etModpathInput;
  ExtRec.Description := 'MODPATH Basic input file';
  Add(ExtRec);

  ExtRec := TExtensionObject.Create;
  ExtRec.Extension := '.tim';
  ExtRec.ExtensionType := etModpathInput;
  ExtRec.Description := 'MODPATH Time input file';
  Add(ExtRec);

  ExtRec := TExtensionObject.Create;
  ExtRec.Extension := '.mprsp';
  ExtRec.ExtensionType := etModpathInput;
  ExtRec.Description := 'MODPATH Response input file';
  Add(ExtRec);

  ExtRec := TExtensionObject.Create;
  ExtRec.Extension := '.mprsp.archive';
  ExtRec.ExtensionType := etModpathInput;
  ExtRec.Description := 'MODPATH Response input file';
  Add(ExtRec);

  ExtRec := TExtensionObject.Create;
  ExtRec.Extension := '.mpsim';
  ExtRec.ExtensionType := etModpathInput;
  ExtRec.Description := 'MODPATH Simulation input file';
  Add(ExtRec);

  ExtRec := TExtensionObject.Create;
  ExtRec.Extension := '.mpsim.archive';
  ExtRec.ExtensionType := etModelInput;
  ExtRec.Description := 'MODPATH Simulation input file';
  Add(ExtRec);

  ExtRec := TExtensionObject.Create;
  ExtRec.Extension := '.huf';
  ExtRec.ExtensionType := etModelInput;
  ExtRec.Description := 'MODFLOW Hydrogeologic Unit Flow Package input file';
  Add(ExtRec);

  ExtRec := TExtensionObject.Create;
  ExtRec.Extension := '.kdep';
  ExtRec.ExtensionType := etModelInput;
  ExtRec.Description := 'MODFLOW Hydraulic-Conductivity Depth-Dependence Capability input file';
  Add(ExtRec);

  ExtRec := TExtensionObject.Create;
  ExtRec.Extension := '.lvda';
  ExtRec.ExtensionType := etModelInput;
  ExtRec.Description := 'MODFLOW Model-Layer Variable-Direction Horizontal Anisotropy Capability input file';
  Add(ExtRec);

  ExtRec := TExtensionObject.Create;
  ExtRec.Extension := '.mnw2';
  ExtRec.ExtensionType := etModelInput;
  ExtRec.Description := 'MODFLOW Multi-Node Well Package input file';
  Add(ExtRec);

  ExtRec := TExtensionObject.Create;
  ExtRec.Extension := '.bcf';
  ExtRec.ExtensionType := etModelInput;
  ExtRec.Description := 'MODFLOW Block-Centered Flow Package input file';
  Add(ExtRec);

  ExtRec := TExtensionObject.Create;
  ExtRec.Extension := '.sub';
  ExtRec.ExtensionType := etModelInput;
  ExtRec.Description := 'MODFLOW Subsidence and Aquifer-System Compaction Package input file';
  Add(ExtRec);

  ExtRec := TExtensionObject.Create;
  ExtRec.Extension := '.zb_zones';
  ExtRec.ExtensionType := etZonebudgetInput;
  ExtRec.Description := 'ZONEBUDGET Zone input file';
  Add(ExtRec);

  ExtRec := TExtensionObject.Create;
  ExtRec.Extension := '.zb_response';
  ExtRec.ExtensionType := etZonebudgetInput;
  ExtRec.Description := 'ZONEBUDGET Response file';
  Add(ExtRec);

  ExtRec := TExtensionObject.Create;
  ExtRec.Extension := '.zb_response.archive';
  ExtRec.ExtensionType := etZonebudgetInput;
  ExtRec.Description := 'ZONEBUDGET Response file';
  Add(ExtRec);

//  ExtRec := TExtensionObject.Create;
//  ExtRec.Extension := '.swt';
//  ExtRec.ExtensionType := etModelInput;
//  ExtRec.Description := 'MODFLOW Subsidence and Aquifer-System Compaction Package for Water-Table Aquifers input file';
//  Add(ExtRec);

  ExtRec := TExtensionObject.Create;
  ExtRec.Extension := '.hyd';
  ExtRec.ExtensionType := etModelInput;
  ExtRec.Description := 'MODFLOW HYDMOD Package input file';
  Add(ExtRec);

  ExtRec := TExtensionObject.Create;
  ExtRec.Extension := '.hyd_out';
  ExtRec.ExtensionType := etModelOutput;
  ExtRec.Description := 'MODFLOW HYDMOD Package output file';
  Add(ExtRec);

  ExtRec := TExtensionObject.Create;
  ExtRec.Extension := '.lgr';
  ExtRec.ExtensionType := etModelInput;
  ExtRec.Description := 'MODFLOW-LGR Local Grid Refinement input file';
  Add(ExtRec);

  ExtRec := TExtensionObject.Create;
  ExtRec.Extension := '.lgr.archive';
  ExtRec.ExtensionType := etModelInput;
  ExtRec.Description := 'MODFLOW-LGR Local Grid Refinement input file';
  Add(ExtRec);

  ExtRec := TExtensionObject.Create;
  ExtRec.Extension := '.nwt';
  ExtRec.ExtensionType := etModelInput;
  ExtRec.Description := 'MODFLOW-NWT Newton Solver Package input file';
  Add(ExtRec);

  ExtRec := TExtensionObject.Create;
  ExtRec.Extension := '.upw';
  ExtRec.ExtensionType := etModelInput;
  ExtRec.Description := 'MODFLOW-NWT Upstream Weighting Package input file';
  Add(ExtRec);

  ExtRec := TExtensionObject.Create;
  ExtRec.Extension := '.btn';
  ExtRec.ExtensionType := etMt3dmsInput;
  ExtRec.Description := 'MT3DMS or MT3D-USGS Basic Transport Package input file';
  Add(ExtRec);

  ExtRec := TExtensionObject.Create;
  ExtRec.Extension := '.adv';
  ExtRec.ExtensionType := etMt3dmsInput;
  ExtRec.Description := 'MT3DMS or MT3D-USGS Advection Package input file';
  Add(ExtRec);

  ExtRec := TExtensionObject.Create;
  ExtRec.Extension := '.dsp';
  ExtRec.ExtensionType := etMt3dmsInput;
  ExtRec.Description := 'MT3DMS or MT3D-USGS Dispersion Package input file';
  Add(ExtRec);

  ExtRec := TExtensionObject.Create;
  ExtRec.Extension := '.ssm';
  ExtRec.ExtensionType := etMt3dmsInput;
  ExtRec.Description := 'MT3DMS or MT3D-USGS Sink and Source Mixing Package input file';
  Add(ExtRec);

  ExtRec := TExtensionObject.Create;
  ExtRec.Extension := '.rct';
  ExtRec.ExtensionType := etMt3dmsInput;
  ExtRec.Description := 'MT3DMS or MT3D-USGS Chemical Reactions Package input file';
  Add(ExtRec);

  ExtRec := TExtensionObject.Create;
  ExtRec.Extension := '.gcg';
  ExtRec.ExtensionType := etMt3dmsInput;
  ExtRec.Description := 'MT3DMS or MT3D-USGS Generalized Conjugate Gradient Solver Package input file';
  Add(ExtRec);

  ExtRec := TExtensionObject.Create;
  ExtRec.Extension := '.tob';
  ExtRec.ExtensionType := etMt3dmsInput;
  ExtRec.Description := 'MT3DMS or MT3D-USGS Transport Observation Package input file';
  Add(ExtRec);

  ExtRec := TExtensionObject.Create;
  ExtRec.Extension := '.lmt';
  ExtRec.ExtensionType := etModelInput;
  ExtRec.Description := 'MODFLOW Link to MT3DMS or MT3D-USGS input file';
  Add(ExtRec);

  ExtRec := TExtensionObject.Create;
  ExtRec.Extension := '.pcgn';
  ExtRec.ExtensionType := etModelInput;
  ExtRec.Description := 'MODFLOW Preconditioned Conjugate Gradient Solver with Improved Nonlinear Control input file';
  Add(ExtRec);

  ExtRec := TExtensionObject.Create;
  ExtRec.Extension := '.FluxBcs';
  ExtRec.ExtensionType := etModelInput;
  ExtRec.Description := 'SUTRA Flow time-dependent sources and boundary conditions input file';
  Add(ExtRec);

  ExtRec := TExtensionObject.Create;
  ExtRec.Extension := '.UFluxBcs';
  ExtRec.ExtensionType := etModelInput;
  ExtRec.Description := 'SUTRA concentration or enerty time-dependent sources and boundary conditions input file';
  Add(ExtRec);

  ExtRec := TExtensionObject.Create;
  ExtRec.Extension := '.SPecPBcs';
  ExtRec.ExtensionType := etModelInput;
  ExtRec.Description := 'SUTRA Specified pressure time-dependent sources and boundary conditions input file';
  Add(ExtRec);

  ExtRec := TExtensionObject.Create;
  ExtRec.Extension := '.SPecUBcs';
  ExtRec.ExtensionType := etModelInput;
  ExtRec.Description := 'SUTRA Specified concentration or temperature time-dependent sources and boundary conditions input file';
  Add(ExtRec);

  ExtRec := TExtensionObject.Create;
  ExtRec.Extension := '.8d';
  ExtRec.ExtensionType := etModelInput;
  ExtRec.Description := 'SUTRA input file data set 8D';
  Add(ExtRec);

  ExtRec := TExtensionObject.Create;
  ExtRec.Extension := '.inp';
  ExtRec.ExtensionType := etModelInput;
  ExtRec.Description := 'SUTRA Main input file';
  Add(ExtRec);

  ExtRec := TExtensionObject.Create;
  ExtRec.Extension := '.ics';
  ExtRec.ExtensionType := etModelInput;
  ExtRec.Description := 'SUTRA Initial Conditions input file';
  Add(ExtRec);

  ExtRec := TExtensionObject.Create;
  ExtRec.Extension := '.str';
  ExtRec.ExtensionType := etModelInput;
  ExtRec.Description := 'MODFLOW Stream Package input file';
  Add(ExtRec);

  ExtRec := TExtensionObject.Create;
  ExtRec.Extension := '.fhb';
  ExtRec.ExtensionType := etModelInput;
  ExtRec.Description := 'MODFLOW Flow and Head Boundary Package input file';
  Add(ExtRec);

  ExtRec := TExtensionObject.Create;
  ExtRec.Extension := '.fmp';
  ExtRec.ExtensionType := etModelInput;
  ExtRec.Description := 'MODFLOW-OWHM Farm Process input file';
  Add(ExtRec);

  ExtRec := TExtensionObject.Create;
  ExtRec.Extension := '.ROOT';
  ExtRec.ExtensionType := etModelInput;
  ExtRec.Description := 'MODFLOW-OWHM Farm Process input file data set 11';
  Add(ExtRec);

  ExtRec := TExtensionObject.Create;
  ExtRec.Extension := '.SW_Losses';
  ExtRec.ExtensionType := etModelInput;
  ExtRec.Description := 'MODFLOW-OWHM Farm Process input file data set 13';
  Add(ExtRec);

  ExtRec := TExtensionObject.Create;
  ExtRec.Extension := '.PSI';
  ExtRec.ExtensionType := etModelInput;
  ExtRec.Description := 'MODFLOW-OWHM Farm Process input file data set 14';
  Add(ExtRec);

  ExtRec := TExtensionObject.Create;
  ExtRec.Extension := '.ET_Func';
  ExtRec.ExtensionType := etModelInput;
  ExtRec.Description := 'MODFLOW-OWHM Farm Process input file data set 15';
  Add(ExtRec);

  ExtRec := TExtensionObject.Create;
  ExtRec.Extension := '.TimeSeries';
  ExtRec.ExtensionType := etModelInput;
  ExtRec.Description := 'MODFLOW-OWHM Farm Process input file data set 16';
  Add(ExtRec);

  ExtRec := TExtensionObject.Create;
  ExtRec.Extension := '.IFALLOW';
  ExtRec.ExtensionType := etModelInput;
  ExtRec.Description := 'MODFLOW-OWHM Farm Process input file data set 17';
  Add(ExtRec);

  ExtRec := TExtensionObject.Create;
  ExtRec.Extension := '.CropFunc';
  ExtRec.ExtensionType := etModelInput;
  ExtRec.Description := 'MODFLOW-OWHM Farm Process input file data set 34';
  Add(ExtRec);

  ExtRec := TExtensionObject.Create;
  ExtRec.Extension := '.WaterCost';
  ExtRec.ExtensionType := etModelInput;
  ExtRec.Description := 'MODFLOW-OWHM Farm Process input file data set 35';
  Add(ExtRec);

  ExtRec := TExtensionObject.Create;
  ExtRec.Extension := '.NonRouteDeliv';
  ExtRec.ExtensionType := etModelInput;
  ExtRec.Description := 'MODFLOW-OWHM Farm Process input file data set 36';
  Add(ExtRec);

  ExtRec := TExtensionObject.Create;
  ExtRec.Extension := '.SemiRouteDeliv';
  ExtRec.ExtensionType := etModelInput;
  ExtRec.Description := 'MODFLOW-OWHM Farm Process input file data set 37a';
  Add(ExtRec);

  ExtRec := TExtensionObject.Create;
  ExtRec.Extension := '.SemiRouteReturn';
  ExtRec.ExtensionType := etModelInput;
  ExtRec.Description := 'MODFLOW-OWHM Farm Process input file data set 37b';
  Add(ExtRec);

  ExtRec := TExtensionObject.Create;
  ExtRec.Extension := '.CALL';
  ExtRec.ExtensionType := etModelInput;
  ExtRec.Description := 'MODFLOW-OWHM Farm Process input file data set 39';
  Add(ExtRec);

  ExtRec := TExtensionObject.Create;
  ExtRec.Extension := '.FID';
  ExtRec.ExtensionType := etModelInput;
  ExtRec.Description := 'MODFLOW-OWHM Farm Process input file data set 26';
  Add(ExtRec);

  ExtRec := TExtensionObject.Create;
  ExtRec.Extension := '.OFE';
  ExtRec.ExtensionType := etModelInput;
  ExtRec.Description := 'MODFLOW-OWHM Farm Process input file data set 7';
  Add(ExtRec);

  ExtRec := TExtensionObject.Create;
  ExtRec.Extension := '.CID';
  ExtRec.ExtensionType := etModelInput;
  ExtRec.Description := 'MODFLOW-OWHM Farm Process input file data set 28';
  Add(ExtRec);

  ExtRec := TExtensionObject.Create;
  ExtRec.Extension := '.CropUse';
  ExtRec.ExtensionType := etModelInput;
  ExtRec.Description := 'MODFLOW-OWHM Farm Process input file data set 30a';
  Add(ExtRec);

  ExtRec := TExtensionObject.Create;
  ExtRec.Extension := '.ETR';
  ExtRec.ExtensionType := etModelInput;
  ExtRec.Description := 'MODFLOW-OWHM Farm Process input file data set 30b';
  Add(ExtRec);

  ExtRec := TExtensionObject.Create;
  ExtRec.Extension := '.ET_Frac';
  ExtRec.ExtensionType := etModelInput;
  ExtRec.Description := 'MODFLOW-OWHM Farm Process input file data set 12';
  Add(ExtRec);

  ExtRec := TExtensionObject.Create;
  ExtRec.Extension := '.cfp';
  ExtRec.ExtensionType := etModelInput;
  ExtRec.Description := 'MODFLOW-CFP Conduit Flow Process input file';
  Add(ExtRec);

  ExtRec := TExtensionObject.Create;
  ExtRec.Extension := '.swi';
  ExtRec.ExtensionType := etModelInput;
  ExtRec.Description := 'MODFLOW Seawater Intrusion Package input file';
  Add(ExtRec);

  ExtRec := TExtensionObject.Create;
  ExtRec.Extension := '.swr';
  ExtRec.ExtensionType := etModelInput;
  ExtRec.Description := 'MODFLOW-NWT Surface-Water Routing Process input file';
  Add(ExtRec);

  ExtRec := TExtensionObject.Create;
  ExtRec.Extension := '.mnw1';
  ExtRec.ExtensionType := etModelInput;
  ExtRec.Description := 'MODFLOW Multi-Node Well Package input file';
  Add(ExtRec);

  ExtRec := TExtensionObject.Create;
  ExtRec.Extension := '.ic';
  ExtRec.ExtensionType := etModelInput;
  ExtRec.Description := 'MODFLOW 6 Initial Conditions input file';
  Add(ExtRec);

  ExtRec := TExtensionObject.Create;
  ExtRec.Extension := '.npf';
  ExtRec.ExtensionType := etModelInput;
  ExtRec.Description := 'MODFLOW 6 Node Property Flow package input file';
  Add(ExtRec);

  ExtRec := TExtensionObject.Create;
  ExtRec.Extension := '.sto';
  ExtRec.ExtensionType := etModelInput;
  ExtRec.Description := 'MODFLOW 6 Storage package input file';
  Add(ExtRec);

  ExtRec := TExtensionObject.Create;
  ExtRec.Extension := '.sms';
  ExtRec.ExtensionType := etModelInput;
  ExtRec.Description := 'MODFLOW 6 Sparse Matrix Solution package input file';
  Add(ExtRec);

  ExtRec := TExtensionObject.Create;
  ExtRec.Extension := '.tdis';
  ExtRec.ExtensionType := etModelInput;
  ExtRec.Description := 'MODFLOW 6 Time-Discretization input file';
  Add(ExtRec);

  ExtRec := TExtensionObject.Create;
  ExtRec.Extension := '.rip';
  ExtRec.ExtensionType := etModelInput;
  ExtRec.Description := 'MODFLOW-OWHM Riparean Evapotranspiration Package input file';
  Add(ExtRec);

  ExtRec := TExtensionObject.Create;
  ExtRec.Extension := '.lkin';
  ExtRec.ExtensionType := etModelInput;
  ExtRec.Description := 'SUTRA Lake input file';
  Add(ExtRec);

  ExtRec := TExtensionObject.Create;
  ExtRec.Extension := '.bcof';
  ExtRec.ExtensionType := etModelInput;
  ExtRec.Description := 'SUTRA Fluid Source Boundary Condition input file';
  Add(ExtRec);

  ExtRec := TExtensionObject.Create;
  ExtRec.Extension := '.bcos';
  ExtRec.ExtensionType := etModelInput;
  ExtRec.Description := 'SUTRA Solute or Energy Source Boundary Condition input file';
  Add(ExtRec);

  ExtRec := TExtensionObject.Create;
  ExtRec.Extension := '.bcop';
  ExtRec.ExtensionType := etModelInput;
  ExtRec.Description := 'SUTRA Specified Pressure input file';
  Add(ExtRec);

  ExtRec := TExtensionObject.Create;
  ExtRec.Extension := '.bcou';
  ExtRec.ExtensionType := etModelInput;
  ExtRec.Description := 'SUTRA Specified Concentration or Temperature input file';
  Add(ExtRec);

  ExtRec := TExtensionObject.Create;
  ExtRec.Extension := '.fil';
  ExtRec.ExtensionType := etModelInput;
  ExtRec.Description := 'SUTRA File Assignment input file';
  Add(ExtRec);

  ExtRec := TExtensionObject.Create;
  ExtRec.Extension := '.fil.archive';
  ExtRec.ExtensionType := etModelInput;
  ExtRec.Description := 'SUTRA File Assignment input file';
  Add(ExtRec);

  ExtRec := TExtensionObject.Create;
  ExtRec.Extension := '.pval';
  ExtRec.ExtensionType := etModelInput;
  ExtRec.Description := 'MODFLOW Parameter Value input file';
  Add(ExtRec);

  ExtRec := TExtensionObject.Create;
  ExtRec.Extension := '.rch.R_Mult*';
  ExtRec.ExtensionType := etModelInput;
  ExtRec.Description := 'MODFLOW Recharge Multiplier Array';
  Add(ExtRec);

  ExtRec := TExtensionObject.Create;
  ExtRec.Extension := '.evt.ET_Mult*';
  ExtRec.ExtensionType := etModelInput;
  ExtRec.Description := 'MODFLOW Evapotranspiration Multiplier Array';
  Add(ExtRec);

  ExtRec := TExtensionObject.Create;
  ExtRec.Extension := '.ets.ETS_Mult*';
  ExtRec.ExtensionType := etModelInput;
  ExtRec.Description := 'MODFLOW Evapotranspiration Segments Multiplier Array';
  Add(ExtRec);

  ExtRec := TExtensionObject.Create;
  ExtRec.Extension := '.rch.R_Zone*';
  ExtRec.ExtensionType := etModelInput;
  ExtRec.Description := 'MODFLOW Recharge Zone Array';
  Add(ExtRec);

  ExtRec := TExtensionObject.Create;
  ExtRec.Extension := '.evt.ET_Zone*';
  ExtRec.ExtensionType := etModelInput;
  ExtRec.Description := 'MODFLOW Evapotranspiration Zone Array';
  Add(ExtRec);

  ExtRec := TExtensionObject.Create;
  ExtRec.Extension := '.ets.ETS_Zone*';
  ExtRec.ExtensionType := etModelInput;
  ExtRec.Description := 'MODFLOW Evapotranspiration Segments Zone Array';
  Add(ExtRec);

  ExtRec := TExtensionObject.Create;
  ExtRec.Extension := '.ftl';
  ExtRec.ExtensionType := etModelOutput;
  ExtRec.Description := 'MODFLOW MT3DMS or MT3D-USGS Flow Transport Link output file';
  Add(ExtRec);

  ExtRec := TExtensionObject.Create;
  ExtRec.Extension := '.lst';
  ExtRec.ExtensionType := etModelOutput;
  ExtRec.Description := 'MODFLOW Listing file';
  Add(ExtRec);

  ExtRec := TExtensionObject.Create;
  ExtRec.Extension := '.fhd';
  ExtRec.ExtensionType := etModelOutput;
  ExtRec.Description := 'MODFLOW Formatted Head file';
  Add(ExtRec);

  ExtRec := TExtensionObject.Create;
  ExtRec.Extension := '.bhd';
  ExtRec.ExtensionType := etModelOutput;
  ExtRec.Description := 'MODFLOW Binary Head file';
  Add(ExtRec);

  ExtRec := TExtensionObject.Create;
  ExtRec.Extension := '.fdn';
  ExtRec.ExtensionType := etModelOutput;
  ExtRec.Description := 'MODFLOW Formatted Drawdown file';
  Add(ExtRec);

  ExtRec := TExtensionObject.Create;
  ExtRec.Extension := '.bdn';
  ExtRec.ExtensionType := etModelOutput;
  ExtRec.Description := 'MODFLOW Binary Drawdown file';
  Add(ExtRec);

  ExtRec := TExtensionObject.Create;
  ExtRec.Extension := '.cbc';
  ExtRec.ExtensionType := etModelOutput;
  ExtRec.Description := 'MODFLOW Cell-By-Cell flow file';
  Add(ExtRec);

  ExtRec := TExtensionObject.Create;
  ExtRec.Extension := '.bud';
  ExtRec.ExtensionType := etModelOutput;
  ExtRec.Description := 'MODFLOW Cell-By-Cell flow file';
  Add(ExtRec);

  ExtRec := TExtensionObject.Create;
  ExtRec.Extension := '.huf_fhd';
  ExtRec.ExtensionType := etModelOutput;
  ExtRec.Description := 'MODFLOW HUF Formatted Head file';
  Add(ExtRec);

  ExtRec := TExtensionObject.Create;
  ExtRec.Extension := '.huf_bhd';
  ExtRec.ExtensionType := etModelOutput;
  ExtRec.Description := 'MODFLOW HUF Binary Head file';
  Add(ExtRec);

  ExtRec := TExtensionObject.Create;
  ExtRec.Extension := '.huf_flow';
  ExtRec.ExtensionType := etModelOutput;
  ExtRec.Description := 'MODFLOW HUF Flow File';
  Add(ExtRec);

  ExtRec := TExtensionObject.Create;
  ExtRec.Extension := '.Sub_Out';
  ExtRec.ExtensionType := etModelOutput;
  ExtRec.Description := 'MODFLOW Combined SUB output file';
  Add(ExtRec);

//  ExtRec := TExtensionObject.Create;
//  ExtRec.Extension := '.Swt_Out';
//  ExtRec.ExtensionType := etModelOutput;
//  ExtRec.Description := 'MODFLOW Combined SWT output file';
//  Add(ExtRec);

  ExtRec := TExtensionObject.Create;
  ExtRec.Extension := '.SubSubOut';
  ExtRec.ExtensionType := etModelOutput;
  ExtRec.Description := 'MODFLOW SUB Subsidence output file';
  Add(ExtRec);

  ExtRec := TExtensionObject.Create;
  ExtRec.Extension := '.SubComMlOut';
  ExtRec.ExtensionType := etModelOutput;
  ExtRec.Description := 'MODFLOW SUB Compaction by model layer output file';
  Add(ExtRec);

  ExtRec := TExtensionObject.Create;
  ExtRec.Extension := '.SubComIsOut';
  ExtRec.ExtensionType := etModelOutput;
  ExtRec.Description := 'MODFLOW SUB Compaction by interbed system output file';
  Add(ExtRec);

  ExtRec := TExtensionObject.Create;
  ExtRec.Extension := '.SubVdOut';
  ExtRec.ExtensionType := etModelOutput;
  ExtRec.Description := 'MODFLOW SUB Vertical displacement output file';
  Add(ExtRec);

  ExtRec := TExtensionObject.Create;
  ExtRec.Extension := '.SubNdCritHeadOut';
  ExtRec.ExtensionType := etModelOutput;
  ExtRec.Description := 'MODFLOW SUB Critical head for no-delay interbeds output file';
  Add(ExtRec);

  ExtRec := TExtensionObject.Create;
  ExtRec.Extension := '.SubDCritHeadOut';
  ExtRec.ExtensionType := etModelOutput;
  ExtRec.Description := 'MODFLOW SUB Critical head for delay interbeds output file';
  Add(ExtRec);

  ExtRec := TExtensionObject.Create;
  ExtRec.Extension := '.SwtSubOut';
  ExtRec.ExtensionType := etModelOutput;
  ExtRec.Description := 'MODFLOW SWT Subsidence output file';
  Add(ExtRec);

  ExtRec := TExtensionObject.Create;
  ExtRec.Extension := '.SwtComMLOut';
  ExtRec.ExtensionType := etModelOutput;
  ExtRec.Description := 'MODFLOW SWT Compaction by model layer output file';
  Add(ExtRec);

  ExtRec := TExtensionObject.Create;
  ExtRec.Extension := '.SwtComIsOut';
  ExtRec.ExtensionType := etModelOutput;
  ExtRec.Description := 'MODFLOW SWT Compaction by interbed system output file';
  Add(ExtRec);

  ExtRec := TExtensionObject.Create;
  ExtRec.Extension := '.SwtVDOut';
  ExtRec.ExtensionType := etModelOutput;
  ExtRec.Description := 'MODFLOW SWT Vertical displacement output file';
  Add(ExtRec);

  ExtRec := TExtensionObject.Create;
  ExtRec.Extension := '.SwtPreConStrOut';
  ExtRec.ExtensionType := etModelOutput;
  ExtRec.Description := 'MODFLOW SWT Preconsolidation stress output file';
  Add(ExtRec);

  ExtRec := TExtensionObject.Create;
  ExtRec.Extension := '.SwtDeltaPreConStrOut';
  ExtRec.ExtensionType := etModelOutput;
  ExtRec.Description := 'MODFLOW SWT Change in preconsolidation stress output file';
  Add(ExtRec);

  ExtRec := TExtensionObject.Create;
  ExtRec.Extension := '.SwtGeoStatOut';
  ExtRec.ExtensionType := etModelOutput;
  ExtRec.Description := 'MODFLOW SWT Geostatic stress output file';
  Add(ExtRec);

  ExtRec := TExtensionObject.Create;
  ExtRec.Extension := '.SwtDeltaGeoStatOut';