# MODFLOW-2005 PVAL file for project default_project
11
SS_1   1.113036610119009E-003
HK_1   4.156149207582922E-004
VERT_ANI_1   1.000000000000000E+000
VERT_K_CB   2.117500036830603E-007
SS_2   5.914511167492094E-005
HK_2   4.707012789743632E-005
VERT_ANI_2   1.000000000000000E+000
WELLS_TR  -1.048421322198536E+000
RIVERS   1.326701025537881E-003
RCH_ZONE_1   3.345289500692622E+001
RCH_ZONE_2   4.923021249665516E+001
