# Initial Conditions Package file created on 3/18/2024 by ModelMuse version 5.1.1.57.
BEGIN GRIDDATA
  STRT LAYERED IPRN    12
    CONSTANT   3.000000000000E+001  # STRT Upper Aquifer

    CONSTANT   3.000000000000E+001  # STRT Middle Aquifer

    CONSTANT   3.000000000000E+001  # STRT Lower Aquifer

END GRIDDATA

