# Output Control file created on 3/18/2024 by ModelMuse version 5.1.1.57.
BEGIN OPTIONS
  BUDGET FILEOUT 'ArrayObsMF6.cbc'
  HEAD FILEOUT 'ArrayObsMF6.bhd'
END OPTIONS

BEGIN PERIOD      1
  SAVE HEAD ALL
  PRINT BUDGET ALL
  SAVE BUDGET ALL
END PERIOD 

