# CSUB: Skeletal Storage, Compaction, and Subsidence Package file created on 7/8/2021 by ModelMuse version 4.3.0.56.
BEGIN OPTIONS
  BOUNDNAMES
    PRINT_INPUT
    SAVE_FLOWS
  GAMMAW   9.806650000000E+003 
  BETA   4.651200000000E-010 
  NDELAYCELLS     19
  COMPRESSION_INDICES
  UPDATE_MATERIAL_PROPERTIES
  EFFECTIVE_STRESS_LAG
  ZDISPLACEMENT FILEOUT CSubExampletest.csub_z_dis
  PACKAGE_CONVERGENCE FILEOUT CSubExampletest.CsubConvergence.CSV
    OBS6 FILEIN CSubExampletest.ob_csub
END OPTIONS

BEGIN DIMENSIONS
  NINTERBEDS   840
  MAXSIG0   423
END DIMENSIONS

BEGIN GRIDDATA
  CG_SKE_CR LAYERED IPRN    12
    CONSTANT   5.000000000000E-003  # CG_SKE_CR 1

    CONSTANT   5.000000000000E-003  # CG_SKE_CR 2

    CONSTANT   1.000000000000E-002  # CG_SKE_CR 3

    CONSTANT   5.000000000000E-003  # CG_SKE_CR 4

  CG_THETA LAYERED IPRN    12
    CONSTANT   3.200000000000E-001  # CG_THETA 1

    CONSTANT   3.200000000000E-001  # CG_THETA 2

    CONSTANT   4.505494500000E-001  # CG_THETA 3

    CONSTANT   3.200000000000E-001  # CG_THETA 4

  SGM LAYERED IPRN    12
    CONSTANT   1.770000000000E+000  # SGM 1

    CONSTANT   1.770000000000E+000  # SGM 2

    CONSTANT   1.600000000000E+000  # SGM 3

    CONSTANT   1.770000000000E+000  # SGM 4

  SGS LAYERED IPRN    12
    CONSTANT   2.060000000000E+000  # SGS 1

    CONSTANT   2.050000000000E+000  # SGS 2

    CONSTANT   1.940000000000E+000  # SGS 3

    CONSTANT   2.060000000000E+000  # SGS 4

END GRIDDATA

BEGIN PACKAGEDATA
       1     1     1     6 NODELAY  1.500000000000E+001   4.500000000000E+001   1.000000000000E+000   2.500000000000E-001   1.000000000000E-002   4.505494505495E-001   9.990000000000E+002   9.990000000000E+002  CSUB_Upper_Aquifer
       2     1     1     7 NODELAY  1.500000000000E+001   4.500000000000E+001   1.000000000000E+000   2.500000000000E-001   1.000000000000E-002   4.505494505495E-001   9.990000000000E+002   9.990000000000E+002  CSUB_Upper_Aquifer
       3     1     1     8 NODELAY  1.500000000000E+001   4.500000000000E+001   1.000000000000E+000   2.500000000000E-001   1.000000000000E-002   4.505494505495E-001   9.990000000000E+002   9.990000000000E+002  CSUB_Upper_Aquifer
       4     1     1     9 NODELAY  1.500000000000E+001   4.500000000000E+001   1.000000000000E+000   2.500000000000E-001   1.000000000000E-002   4.505494505495E-001   9.990000000000E+002   9.990000000000E+002  CSUB_Upper_Aquifer
       5     1     1    10 NODELAY  1.500000000000E+001   4.500000000000E+001   1.000000000000E+000   2.500000000000E-001   1.000000000000E-002   4.505494505495E-001   9.990000000000E+002   9.990000000000E+002  CSUB_Upper_Aquifer
       6     1     2     5 NODELAY  1.500000000000E+001   4.500000000000E+001   1.000000000000E+000   2.500000000000E-001   1.000000000000E-002   4.505494505495E-001   9.990000000000E+002   9.990000000000E+002  CSUB_Upper_Aquifer
       7     1     2     6 NODELAY  1.500000000000E+001   4.500000000000E+001   1.000000000000E+000   2.500000000000E-001   1.000000000000E-002   4.505494505495E-001   9.990000000000E+002   9.990000000000E+002  CSUB_Upper_Aquifer
       8     1     2     7 NODELAY  1.500000000000E+001   4.500000000000E+001   1.000000000000E+000   2.500000000000E-001   1.000000000000E-002   4.505494505495E-001   9.990000000000E+002   9.990000000000E+002  CSUB_Upper_Aquifer
       9     1     2     8 NODELAY  1.500000000000E+001   4.500000000000E+001   1.000000000000E+000   2.500000000000E-001   1.000000000000E-002   4.505494505495E-001   9.990000000000E+002   9.990000000000E+002  CSUB_Upper_Aquifer
      10     1     2     9 NODELAY  1.500000000000E+001   4.500000000000E+001   1.000000000000E+000   2.500000000000E-001   1.000000000000E-002   4.505494505495E-001   9.990000000000E+002   9.990000000000E+002  CSUB_Upper_Aquifer
      11     1     2    10 NODELAY  1.500000000000E+001   4.500000000000E+001   1.000000000000E+000   2.500000000000E-001   1.000000000000E-002   4.505494505495E-001   9.990000000000E+002   9.990000000000E+002  CSUB_Upper_Aquifer
      12     1     2    11 NODELAY  1.500000000000E+001   4.500000000000E+001   1.000000000000E+000   2.500000000000E-001   1.000000000000E-002   4.505494505495E-001   9.990000000000E+002   9.990000000000E+002  CSUB_Upper_Aquifer
      13     1     2    12 NODELAY  1.500000000000E+001   4.500000000000E+001   1.000000000000E+000   2.500000000000E-001   1.000000000000E-002   4.505494505495E-001   9.990000000000E+002   9.990000000000E+002  CSUB_Upper_Aquifer
      14     1     3     4 NODELAY  1.500000000000E+001   4.500000000000E+001   1.000000000000E+000   2.500000000000E-001   1.000000000000E-002   4.505494505495E-001   9.990000000000E+002   9.990000000000E+002  CSUB_Upper_Aquifer
      15     1     3     5 NODELAY  1.500000000000E+001   4.500000000000E+001   1.000000000000E+000   2.500000000000E-001   1.000000000000E-002   4.505494505495E-001   9.990000000000E+002   9.990000000000E+002  CSUB_Upper_Aquifer
      16     1     3     6 NODELAY  1.500000000000E+001   4.500000000000E+001   1.000000000000E+000   2.500000000000E-001   1.000000000000E-002   4.505494505495E-001   9.990000000000E+002   9.990000000000E+002  CSUB_Upper_Aquifer
      17     1     3     7 NODELAY  1.500000000000E+001   4.500000000000E+001   1.000000000000E+000   2.500000000000E-001   1.000000000000E-002   4.505494505495E-001   9.990000000000E+002   9.990000000000E+002  CSUB_Upper_Aquifer
      18     1     3     8 NODELAY  1.500000000000E+001   4.500000000000E+001   1.000000000000E+000   2.500000000000E-001   1.000000000000E-002   4.505494505495E-001   9.990000000000E+002   9.990000000000E+002  CSUB_Upper_Aquifer
      19     1     3     9 NODELAY  1.500000000000E+001   4.500000000000E+001   1.000000000000E+000   2.500000000000E-001   1.000000000000E-002   4.505494505495E-001   9.990000000000E+002   9.990000000000E+002  CSUB_Upper_Aquifer
      20     1     3    10 NODELAY  1.500000000000E+001   4.500000000000E+001   1.000000000000E+000   2.500000000000E-001   1.000000000000E-002   4.505494505495E-001   9.990000000000E+002   9.990000000000E+002  CSUB_Upper_Aquifer
      21     1     3    11 NODELAY  1.500000000000E+001   4.500000000000E+001   1.000000000000E+000   2.500000000000E-001   1.000000000000E-002   4.505494505495E-001   9.990000000000E+002   9.990000000000E+002  CSUB_Upper_Aquifer
      22     1     3    12 NODELAY  1.500000000000E+001   4.500000000000E+001   1.000000000000E+000   2.500000000000E-001   1.000000000000E-002   4.505494505495E-001   9.990000000000E+002   9.990000000000E+002  CSUB_Upper_Aquifer
      23     1     4     4 NODELAY  1.500000000000E+001   4.500000000000E+001   1.000000000000E+000   2.500000000000E-001   1.000000000000E-002   4.505494505495E-001   9.990000000000E+002   9.990000000000E+002  CSUB_Upper_Aquifer
      24     1     4     5 NODELAY  1.500000000000E+001   4.500000000000E+001   1.000000000000E+000   2.500000000000E-001   1.000000000000E-002   4.505494505495E-001   9.990000000000E+002   9.990000000000E+002  CSUB_Upper_Aquifer
      25     1     4     6 NODELAY  1.500000000000E+001   4.500000000000E+001   1.000000000000E+000   2.500000000000E-001   1.000000000000E-002   4.505494505495E-001   9.990000000000E+002   9.990000000000E+002  CSUB_Upper_Aquifer
      26     1     4     7 NODELAY  1.500000000000E+001   4.500000000000E+001   1.000000000000E+000   2.500000000000E-001   1.000000000000E-002   4.505494505495E-001   9.990000000000E+002   9.990000000000E+002  CSUB_Upper_Aquifer
      27     1     4     8 NODELAY  1.500000000000E+001   4.500000000000E+001   1.000000000000E+000   2.500000000000E-001   1.000000000000E-002   4.505494505495E-001   9.990000000000E+002   9.990000000000E+002  CSUB_Upper_Aquifer
      28     1     4     9 NODELAY  1.500000000000E+001   4.500000000000E+001   1.000000000000E+000   2.500000000000E-001   1.000000000000E-002   4.505494505495E-001   9.990000000000E+002   9.990000000000E+002  CSUB_Upper_Aquifer
      29     1     4    10 NODELAY  1.500000000000E+001   4.500000000000E+001   1.000000000000E+000   2.500000000000E-001   1.000000000000E-002   4.505494505495E-001   9.990000000000E+002   9.990000000000E+002  CSUB_Upper_Aquifer
      30     1     4    11 NODELAY  1.500000000000E+001   4.500000000000E+001   1.000000000000E+000   2.500000000000E-001   1.000000000000E-002   4.505494505495E-001   9.990000000000E+002   9.990000000000E+002  CSUB_Upper_Aquifer
      31     1     4    12 NODELAY  1.500000000000E+001   4.500000000000E+001   1.000000000000E+000   2.500000000000E-001   1.000000000000E-002   4.505494505495E-001   9.990000000000E+002   9.990000000000E+002  CSUB_Upper_Aquifer
      32     1     5     3 NODELAY  1.500000000000E+001   4.500000000000E+001   1.000000000000E+000   2.500000000000E-001   1.000000000000E-002   4.505494505495E-001   9.990000000000E+002   9.990000000000E+002  CSUB_Upper_Aquifer
      33     1     5     4 NODELAY  1.500000000000E+001   4.500000000000E+001   1.000000000000E+000   2.500000000000E-001   1.000000000000E-002   4.505494505495E-001   9.990000000000E+002   9.990000000000E+002  CSUB_Upper_Aquifer
      34     1     5     5 NODELAY  1.500000000000E+001   4.500000000000E+001   1.000000000000E+000   2.500000000000E-001   1.000000000000E-002   4.505494505495E-001   9.990000000000E+002   9.990000000000E+002  CSUB_Upper_Aquifer
      35     1     5     6 NODELAY  1.500000000000E+001   4.500000000000E+001   1.000000000000E+000   2.500000000000E-001   1.000000000000E-002   4.505494505495E-001   9.990000000000E+002   9.990000000000E+002  CSUB_Upper_Aquifer
      36     1     5     7 NODELAY  1.500000000000E+001   4.500000000000E+001   1.000000000000E+000   2.500000000000E-001   1.000000000000E-002   4.505494505495E-001   9.990000000000E+002   9.990000000000E+002  CSUB_Upper_Aquifer
      37     1     5     8 NODELAY  1.500000000000E+001   4.500000000000E+001   1.000000000000E+000   2.500000000000E-001   1.000000000000E-002   4.505494505495E-001   9.990000000000E+002   9.990000000000E+002  CSUB_Upper_Aquifer
      38     1     5     9 NODELAY  1.500000000000E+001   4.500000000000E+001   1.000000000000E+000   2.500000000000E-001   1.000000000000E-002   4.505494505495E-001   9.990000000000E+002   9.990000000000E+002  CSUB_Upper_Aquifer
      39     1     5    10 NODELAY  1.500000000000E+001   4.500000000000E+001   1.000000000000E+000   2.500000000000E-001   1.000000000000E-002   4.505494505495E-001   9.990000000000E+002   9.990000000000E+002  CSUB_Upper_Aquifer
      40     1     5    11 NODELAY  1.500000000000E+001   4.500000000000E+001   1.000000000000E+000   2.500000000000E-001   1.000000000000E-002   4.505494505495E-001   9.990000000000E+002   9.990000000000E+002  CSUB_Upper_Aquifer
      41     1     5    12 NODELAY  1.500000000000E+001   4.500000000000E+001   1.000000000000E+000   2.500000000000E-001   1.000000000000E-002   4.505494505495E-001   9.990000000000E+002   9.990000000000E+002  CSUB_Upper_Aquifer
      42     1     5    13 NODELAY  1.500000000000E+001   4.500000000000E+001   1.000000000000E+000   2.500000000000E-001   1.000000000000E-002   4.505494505495E-001   9.990000000000E+002   9.990000000000E+002  CSUB_Upper_Aquifer
      43     1     6     3 NODELAY  1.500000000000E+001   4.500000000000E+001   1.000000000000E+000   2.500000000000E-001   1.000000000000E-002   4.505494505495E-001   9.990000000000E+002   9.990000000000E+002  CSUB_Upper_Aquifer
      44     1     6     4 NODELAY  1.500000000000E+001   4.500000000000E+001   1.000000000000E+000   2.500000000000E-001   1.000000000000E-002   4.505494505495E-001   9.990000000000E+002   9.990000000000E+002  CSUB_Upper_Aquifer
      45     1     6     5 NODELAY  1.500000000000E+001   4.500000000000E+001   1.000000000000E+000   2.500000000000E-001   1.000000000000E-002   4.505494505495E-001   9.990000000000E+002   9.990000000000E+002  CSUB_Upper_Aquifer
      46     1     6     6 NODELAY  1.500000000000E+001   4.500000000000E+001   1.000000000000E+000   2.500000000000E-001   1.000000000000E-002   4.505494505495E-001   9.990000000000E+002   9.990000000000E+002  CSUB_Upper_Aquifer
      47     1     6     7 NODELAY  1.500000000000E+001   4.500000000000E+001   1.000000000000E+000   2.500000000000E-001   1.000000000000E-002   4.505494505495E-001   9.990000000000E+002   9.990000000000E+002  CSUB_Upper_Aquifer
      48     1     6     8 NODELAY  1.500000000000E+001   4.500000000000E+001   1.000000000000E+000   2.500000000000E-001   1.000000000000E-002   4.505494505495E-001   9.990000000000E+002   9.990000000000E+002  CSUB_Upper_Aquifer
      49     1     6     9 NODELAY  1.500000000000E+001   4.500000000000E+001   1.000000000000E+000   2.500000000000E-001   1.000000000000E-002   4.505494505495E-001   9.990000000000E+002   9.990000000000E+002  CSUB_Upper_Aquifer
      50     1     6    10 NODELAY  1.500000000000E+001   4.500000000000E+001   1.000000000000E+000   2.500000000000E-001   1.000000000000E-002   4.505494505495E-001   9.990000000000E+002   9.990000000000E+002  CSUB_Upper_Aquifer
      51     1     6    11 NODELAY  1.500000000000E+001   4.500000000000E+001   1.000000000000E+000   2.500000000000E-001   1.000000000000E-002   4.505494505495E-001   9.990000000000E+002   9.990000000000E+002  CSUB_Upper_Aquifer
      52     1     6    12 NODELAY  1.500000000000E+001   4.500000000000E+001   1.000000000000E+000   2.500000000000E-001   1.000000000000E-002   4.505494505495E-001   9.990000000000E+002   9.990000000000E+002  CSUB_Upper_Aquifer
      53     1     6    13 NODELAY  1.500000000000E+001   4.500000000000E+001   1.000000000000E+000   2.500000000000E-001   1.000000000000E-002   4.505494505495E-001   9.990000000000E+002   9.990000000000E+002  CSUB_Upper_Aquifer
      54     1     6    14 NODELAY  1.500000000000E+001   4.500000000000E+001   1.000000000000E+000   2.500000000000E-001   1.000000000000E-002   4.505494505495E-001   9.990000000000E+002   9.990000000000E+002  CSUB_Upper_Aquifer
      55     1     7     2 NODELAY  1.500000000000E+001   4.500000000000E+001   1.000000000000E+000   2.500000000000E-001   1.000000000000E-002   4.505494505495E-001   9.990000000000E+002   9.990000000000E+002  CSUB_Upper_Aquifer
      56     1     7     3 NODELAY  1.500000000000E+001   4.500000000000E+001   1.000000000000E+000   2.500000000000E-001   1.000000000000E-002   4.505494505495E-001   9.990000000000E+002   9.990000000000E+002  CSUB_Upper_Aquifer
      57     1     7     4 NODELAY  1.500000000000E+001   4.500000000000E+001   1.000000000000E+000   2.500000000000E-001   1.000000000000E-002   4.505494505495E-001   9.990000000000E+002   9.990000000000E+002  CSUB_Upper_Aquifer
      58     1     7     5 NODELAY  1.500000000000E+001   4.500000000000E+001   1.000000000000E+000   2.500000000000E-001   1.000000000000E-002   4.505494505495E-001   9.990000000000E+002   9.990000000000E+002  CSUB_Upper_Aquifer
      59     1     7     6 NODELAY  1.500000000000E+001   4.500000000000E+001   1.000000000000E+000   2.500000000000E-001   1.000000000000E-002   4.505494505495E-001   9.990000000000E+002   9.990000000000E+002  CSUB_Upper_Aquifer
      60     1     7     7 NODELAY  1.500000000000E+001   4.500000000000E+001   1.000000000000E+000   2.500000000000E-001   1.000000000000E-002   4.505494505495E-001   9.990000000000E+002   9.990000000000E+002  CSUB_Upper_Aquifer
      61     1     7     8 NODELAY  1.500000000000E+001   4.500000000000E+001   1.000000000000E+000   2.500000000000E-001   1.000000000000E-002   4.505494505495E-001   9.990000000000E+002   9.990000000000E+002  CSUB_Upper_Aquifer
      62     1     7     9 NODELAY  1.500000000000E+001   4.500000000000E+001   1.000000000000E+000   2.500000000000E-001   1.000000000000E-002   4.505494505495E-001   9.990000000000E+002   9.990000000000E+002  CSUB_Upper_Aquifer
      63     1     7    10 NODELAY  1.500000000000E+001   4.500000000000E+001   1.000000000000E+000   2.500000000000E-001   1.000000000000E-002   4.505494505495E-001   9.990000000000E+002   9.990000000000E+002  CSUB_Upper_Aquifer
      64     1     7    11 NODELAY  1.500000000000E+001   4.500000000000E+001   1.000000000000E+000   2.500000000000E-001   1.000000000000E-002   4.505494505495E-001   9.990000000000E+002   9.990000000000E+002  CSUB_Upper_Aquifer
      65     1     7    12 NODELAY  1.500000000000E+001   4.500000000000E+001   1.000000000000E+000   2.500000000000E-001   1.000000000000E-002   4.505494505495E-001   9.990000000000E+002   9.990000000000E+002  CSUB_Upper_Aquifer
      66     1     7    13 NODELAY  1.500000000000E+001   4.500000000000E+001   1.000000000000E+000   2.500000000000E-001   1.000000000000E-002   4.505494505495E-001   9.990000000000E+002   9.990000000000E+002  CSUB_Upper_Aquifer
      67     1     7    14 NODELAY  1.500000000000E+001   4.500000000000E+001   1.000000000000E+000   2.500000000000E-001   1.000000000000E-002   4.505494505495E-001   9.990000000000E+002   9.990000000000E+002  CSUB_Upper_Aquifer
      68     1     8     2 NODELAY  1.500000000000E+001   4.500000000000E+001   1.000000000000E+000   2.500000000000E-001   1.000000000000E-002   4.505494505495E-001   9.990000000000E+002   9.990000000000E+002  CSUB_Upper_Aquifer
      69     1     8     3 NODELAY  1.500000000000E+001   4.500000000000E+001   1.000000000000E+000   2.500000000000E-001   1.000000000000E-002   4.505494505495E-001   9.990000000000E+002   9.990000000000E+002  CSUB_Upper_Aquifer
      70     1     8     4 NODELAY  1.500000000000E+001   4.500000000000E+001   1.000000000000E+000   2.500000000000E-001   1.000000000000E-002   4.505494505495E-001   9.990000000000E+002   9.990000000000E+002  CSUB_Upper_Aquifer
      71     1     8     5 NODELAY  1.500000000000E+001   4.500000000000E+001   1.000000000000E+000   2.500000000000E-001   1.000000000000E-002   4.505494505495E-001   9.990000000000E+002   9.990000000000E+002  CSUB_Upper_Aquifer
      72     1     8     6 NODELAY  1.500000000000E+001   4.500000000000E+001   1.000000000000E+000   2.500000000000E-001   1.000000000000E-002   4.505494505495E-001   9.990000000000E+002   9.990000000000E+002  CSUB_Upper_Aquifer
      73     1     8     7 NODELAY  1.500000000000E+001   4.500000000000E+001   1.000000000000E+000   2.500000000000E-001   1.000000000000E-002   4.505494505495E-001   9.990000000000E+002   9.990000000000E+002  CSUB_Upper_Aquifer
      74     1     8     8 NODELAY  1.500000000000E+001   4.500000000000E+001   1.000000000000E+000   2.500000000000E-001   1.000000000000E-002   4.505494505495E-001   9.990000000000E+002   9.990000000000E+002  CSUB_Upper_Aquifer
      75     1     8     9 NODELAY  1.500000000000E+001   4.500000000000E+001   1.000000000000E+000   2.500000000000E-001   1.000000000000E-002   4.505494505495E-001   9.990000000000E+002   9.990000000000E+002  CSUB_Upper_Aquifer
      76     1     8    10 NODELAY  1.500000000000E+001   4.500000000000E+001   1.000000000000E+000   2.500000000000E-001   1.000000000000E-002   4.505494505495E-001   9.990000000000E+002   9.990000000000E+002  CSUB_Upper_Aquifer
      77     1     8    11 NODELAY  1.500000000000E+001   4.500000000000E+001   1.000000000000E+000   2.500000000000E-001   1.000000000000E-002   4.505494505495E-001   9.990000000000E+002   9.990000000000E+002  CSUB_Upper_Aquifer
      78     1     8    12 NODELAY  1.500000000000E+001   4.500000000000E+001   1.000000000000E+000   2.500000000000E-001   1.000000000000E-002   4.505494505495E-001   9.990000000000E+002   9.990000000000E+002  CSUB_Upper_Aquifer
      79     1     8    13 NODELAY  1.500000000000E+001   4.500000000000E+001   1.000000000000E+000   2.500000000000E-001   1.000000000000E-002   4.505494505495E-001   9.990000000000E+002   9.990000000000E+002  CSUB_Upper_Aquifer
      80     1     8    14 NODELAY  1.500000000000E+001   4.500000000000E+001   1.000000000000E+000   2.500000000000E-001   1.000000000000E-002   4.505494505495E-001   9.990000000000E+002   9.990000000000E+002  CSUB_Upper_Aquifer
      81     1     9     1 NODELAY  1.500000000000E+001   4.500000000000E+001   1.000000000000E+000   2.500000000000E-001   1.000000000000E-002   4.505494505495E-001   9.990000000000E+002   9.990000000000E+002  CSUB_Upper_Aquifer
      82     1     9     2 NODELAY  1.500000000000E+001   4.500000000000E+001   1.000000000000E+000   2.500000000000E-001   1.000000000000E-002   4.505494505495E-001   9.990000000000E+002   9.990000000000E+002  CSUB_Upper_Aquifer
      83     1     9     3 NODELAY  1.500000000000E+001   4.500000000000E+001   1.000000000000E+000   2.500000000000E-001   1.000000000000E-002   4.505494505495E-001   9.990000000000E+002   9.990000000000E+002  CSUB_Upper_Aquifer
      84     1     9     4 NODELAY  1.500000000000E+001   4.500000000000E+001   1.000000000000E+000   2.500000000000E-001   1.000000000000E-002   4.505494505495E-001   9.990000000000E+002   9.990000000000E+002  CSUB_Upper_Aquifer
      85     1     9     5 NODELAY  1.500000000000E+001   4.500000000000E+001   1.000000000000E+000   2.500000000000E-001   1.000000000000E-002   4.505494505495E-001   9.990000000000E+002   9.990000000000E+002  CSUB_Upper_Aquifer
      86     1     9     6 NODELAY  1.500000000000E+001   4.500000000000E+001   1.000000000000E+000   2.500000000000E-001   1.000000000000E-002   4.505494505495E-001   9.990000000000E+002   9.990000000000E+002  CSUB_Upper_Aquifer
      87     1     9     7 NODELAY  1.500000000000E+001   4.500000000000E+001   1.000000000000E+000   2.500000000000E-001   1.000000000000E-002   4.505494505495E-001   9.990000000000E+002   9.990000000000E+002  CSUB_Upper_Aquifer
      88     1     9     8 NODELAY  1.500000000000E+001   4.500000000000E+001   1.000000000000E+000   2.500000000000E-001   1.000000000000E-002   4.505494505495E-001   9.990000000000E+002   9.990000000000E+002  CSUB_Upper_Aquifer
      89     1     9     9 NODELAY  1.500000000000E+001   4.500000000000E+001   1.000000000000E+000   2.500000000000E-001   1.000000000000E-002   4.505494505495E-001   9.990000000000E+002   9.990000000000E+002  CSUB_Upper_Aquifer
      90     1     9    10 NODELAY  1.500000000000E+001   4.500000000000E+001   1.000000000000E+000   2.500000000000E-001   1.000000000000E-002   4.505494505495E-001   9.990000000000E+002   9.990000000000E+002  CSUB_Upper_Aquifer
      91     1     9    11 NODELAY  1.500000000000E+001   4.500000000000E+001   1.000000000000E+000   2.500000000000E-001   1.000000000000E-002   4.505494505495E-001   9.990000000000E+002   9.990000000000E+002  CSUB_Upper_Aquifer
      92     1     9    12 NODELAY  1.500000000000E+001   4.500000000000E+001   1.000000000000E+000   2.500000000000E-001   1.000000000000E-002   4.505494505495E-001   9.990000000000E+002   9.990000000000E+002  CSUB_Upper_Aquifer
      93     1     9    13 NODELAY  1.500000000000E+001   4.500000000000E+001   1.000000000000E+000   2.500000000000E-001   1.000000000000E-002   4.505494505495E-001   9.990000000000E+002   9.990000000000E+002  CSUB_Upper_Aquifer
      94     1     9    14 NODELAY  1.500000000000E+001   4.500000000000E+001   1.000000000000E+000   2.500000000000E-001   1.000000000000E-002   4.505494505495E-001   9.990000000000E+002   9.990000000000E+002  CSUB_Upper_Aquifer
      95     1     9    15 NODELAY  1.500000000000E+001   4.500000000000E+001   1.000000000000E+000   2.500000000000E-001   1.000000000000E-002   4.505494505495E-001   9.990000000000E+002   9.990000000000E+002  CSUB_Upper_Aquifer
      96     1    10     1 NODELAY  1.500000000000E+001   4.500000000000E+001   1.000000000000E+000   2.500000000000E-001   1.000000000000E-002   4.505494505495E-001   9.990000000000E+002   9.990000000000E+002  CSUB_Upper_Aquifer
      97     1    10     2 NODELAY  1.500000000000E+001   4.500000000000E+001   1.000000000000E+000   2.500000000000E-001   1.000000000000E-002   4.505494505495E-001   9.990000000000E+002   9.990000000000E+002  CSUB_Upper_Aquifer
      98     1    10     3 NODELAY  1.500000000000E+001   4.500000000000E+001   1.000000000000E+000   2.500000000000E-001   1.000000000000E-002   4.505494505495E-001   9.990000000000E+002   9.990000000000E+002  CSUB_Upper_Aquifer
      99     1    10     4 NODELAY  1.500000000000E+001   4.500000000000E+001   1.000000000000E+000   2.500000000000E-001   1.000000000000E-002   4.505494505495E-001   9.990000000000E+002   9.990000000000E+002  CSUB_Upper_Aquifer
     100     1    10     5 NODELAY  1.500000000000E+001   4.500000000000E+001   1.000000000000E+000   2.500000000000E-001   1.000000000000E-002   4.505494505495E-001   9.990000000000E+002   9.990000000000E+002  CSUB_Upper_Aquifer
     101     1    10     6 NODELAY  1.500000000000E+001   4.500000000000E+001   1.000000000000E+000   2.500000000000E-001   1.000000000000E-002   4.505494505495E-001   9.990000000000E+002   9.990000000000E+002  CSUB_Upper_Aquifer
     102     1    10     7 NODELAY  1.500000000000E+001   4.500000000000E+001   1.000000000000E+000   2.500000000000E-001   1.000000000000E-002   4.505494505495E-001   9.990000000000E+002   9.990000000000E+002  CSUB_Upper_Aquifer
     103     1    10     8 NODELAY  1.500000000000E+001   4.500000000000E+001   1.000000000000E+000   2.500000000000E-001   1.000000000000E-002   4.505494505495E-001   9.990000000000E+002   9.990000000000E+002  CSUB_Upper_Aquifer
     104     1    10     9 NODELAY  1.500000000000E+001   4.500000000000E+001   1.000000000000E+000   2.500000000000E-001   1.000000000000E-002   4.505494505495E-001   9.990000000000E+002   9.990000000000E+002  CSUB_Upper_Aquifer
     105     1    10    10 NODELAY  1.500000000000E+001   4.500000000000E+001   1.000000000000E+000   2.500000000000E-001   1.000000000000E-002   4.505494505495E-001   9.990000000000E+002   9.990000000000E+002  CSUB_Upper_Aquifer
     106     1    10    11 NODELAY  1.500000000000E+001   4.500000000000E+001   1.000000000000E+000   2.500000000000E-001   1.000000000000E-002   4.505494505495E-001   9.990000000000E+002   9.990000000000E+002  CSUB_Upper_Aquifer
     107     1    10    12 NODELAY  1.500000000000E+001   4.500000000000E+001   1.000000000000E+000   2.500000000000E-001   1.000000000000E-002   4.505494505495E-001   9.990000000000E+002   9.990000000000E+002  CSUB_Upper_Aquifer
     108     1    10    13 NODELAY  1.500000000000E+001   4.500000000000E+001   1.000000000000E+000   2.500000000000E-001   1.000000000000E-002   4.505494505495E-001   9.990000000000E+002   9.990000000000E+002  CSUB_Upper_Aquifer
     109     1    10    14 NODELAY  1.500000000000E+001   4.500000000000E+001   1.000000000000E+000   2.500000000000E-001   1.000000000000E-002   4.505494505495E-001   9.990000000000E+002   9.990000000000E+002  CSUB_Upper_Aquifer
     110     1    10    15 NODELAY  1.500000000000E+001   4.500000000000E+001   1.000000000000E+000   2.500000000000E-001   1.000000000000E-002   4.505494505495E-001   9.990000000000E+002   9.990000000000E+002  CSUB_Upper_Aquifer
     111     1    11     1 NODELAY  1.500000000000E+001   4.500000000000E+001   1.000000000000E+000   2.500000000000E-001   1.000000000000E-002   4.505494505495E-001   9.990000000000E+002   9.990000000000E+002  CSUB_Upper_Aquifer
     112     1    11     2 NODELAY  1.500000000000E+001   4.500000000000E+001   1.000000000000E+000   2.500000000000E-001   1.000000000000E-002   4.505494505495E-001   9.990000000000E+002   9.990000000000E+002  CSUB_Upper_Aquifer
     113     1    11     3 NODELAY  1.500000000000E+001   4.500000000000E+001   1.000000000000E+000   2.500000000000E-001   1.000000000000E-002   4.505494505495E-001   9.990000000000E+002   9.990000000000E+002  CSUB_Upper_Aquifer
     114     1    11     4 NODELAY  1.500000000000E+001   4.500000000000E+001   1.000000000000E+000   2.500000000000E-001   1.000000000000E-002   4.505494505495E-001   9.990000000000E+002   9.990000000000E+002  CSUB_Upper_Aquifer
     115     1    11     5 NODELAY  1.500000000000E+001   4.500000000000E+001   1.000000000000E+000   2.500000000000E-001   1.000000000000E-002   4.505494505495E-001   9.990000000000E+002   9.990000000000E+002  CSUB_Upper_Aquifer
     116     1    11     6 NODELAY  1.500000000000E+001   4.500000000000E+001   1.000000000000E+000   2.500000000000E-001   1.000000000000E-002   4.505494505495E-001   9.990000000000E+002   9.990000000000E+002  CSUB_Upper_Aquifer
     117     1    11     7 NODELAY  1.500000000000E+001   4.500000000000E+001   1.000000000000E+000   2.500000000000E-001   1.000000000000E-002   4.505494505495E-001   9.990000000000E+002   9.990000000000E+002  CSUB_Upper_Aquifer
     118     1    11     8 NODELAY  1.500000000000E+001   4.500000000000E+001   1.000000000000E+000   2.500000000000E-001   1.000000000000E-002   4.505494505495E-001   9.990000000000E+002   9.990000000000E+002  CSUB_Upper_Aquifer
     119     1    11     9 NODELAY  1.500000000000E+001   4.500000000000E+001   1.000000000000E+000   2.500000000000E-001   1.000000000000E-002   4.505494505495E-001   9.990000000000E+002   9.990000000000E+002  CSUB_Upper_Aquifer
     120     1    11    10 NODELAY  1.500000000000E+001   4.500000000000E+001   1.000000000000E+000   2.500000000000E-001   1.000000000000E-002   4.505494505495E-001   9.990000000000E+002   9.990000000000E+002  CSUB_Upper_Aquifer
     121     1    11    11 NODELAY  1.500000000000E+001   4.500000000000E+001   1.000000000000E+000   2.500000000000E-001   1.000000000000E-002   4.505494505495E-001   9.990000000000E+002   9.990000000000E+002  CSUB_Upper_Aquifer
     122     1    11    12 NODELAY  1.500000000000E+001   4.500000000000E+001   1.000000000000E+000   2.500000000000E-001   1.000000000000E-002   4.505494505495E-001   9.990000000000E+002   9.990000000000E+002  CSUB_Upper_Aquifer
     123     1    11    13 NODELAY  1.500000000000E+001   4.500000000000E+001   1.000000000000E+000   2.500000000000E-001   1.000000000000E-002   4.505494505495E-001   9.990000000000E+002   9.990000000000E+002  CSUB_Upper_Aquifer