# TDIS file created on 7/8/2021 by ModelMuse version 4.3.0.56.

BEGIN OPTIONS
  TIME_UNITS seconds
END OPTIONS

BEGIN DIMENSIONS
  NPER     3
END DIMENSIONS

BEGIN PERIODDATA
    1.000000000000E+000      1  1.000000000000E+000  # perlen nstp tsmult, Stress period      1
    2.191500000000E+004     60  1.000000000000E+000  # perlen nstp tsmult, Stress period      2
    2.191500000000E+004     60  1.000000000000E+000  # perlen nstp tsmult, Stress period      3
END PERIODDATA
