# STO: Storage package file created on 7/8/2021 by ModelMuse version 4.3.0.56.
BEGIN OPTIONS
    SAVE_FLOWS
END OPTIONS

BEGIN GRIDDATA
  ICONVERT LAYERED IPRN     5
    CONSTANT      1 # ICONVERT 1
    CONSTANT      0 # ICONVERT 2
    CONSTANT      0 # ICONVERT 3
    CONSTANT      0 # ICONVERT 4
  SS IPRN    12
    CONSTANT   0.000000000000E+000  # 

  SY LAYERED IPRN    12
    CONSTANT   3.000000000000E-001  # SY 1

    CONSTANT   3.000000000000E-001  # SY 2

    CONSTANT   4.000000000000E-001  # SY 3

    CONSTANT   3.000000000000E-001  # SY 4

END GRIDDATA

BEGIN PERIOD      1
  STEADY-STATE
END PERIOD 

BEGIN PERIOD      2
  TRANSIENT
END PERIOD 

