# Output Control file created on 7/8/2021 by ModelMuse version 4.3.0.56.
BEGIN OPTIONS
  BUDGET FILEOUT 'CSubExampletest.cbc'
  HEAD FILEOUT 'CSubExampletest.bhd'
END OPTIONS

BEGIN PERIOD      1
  SAVE HEAD ALL
  PRINT BUDGET ALL
  SAVE BUDGET ALL
END PERIOD 

BEGIN PERIOD      2
  SAVE HEAD ALL
  PRINT BUDGET ALL
  SAVE BUDGET ALL
END PERIOD 

BEGIN PERIOD      3
  SAVE HEAD ALL
  PRINT BUDGET ALL
  SAVE BUDGET ALL
END PERIOD 

