# Name File for MODFLOW created on 7/11/2021 by ModelMuse Version 4.3.0.56
LIST             11 Drntest.lst REPLACE
DIS              12 Drntest.dis OLD
BAS6             13 Drntest.bas OLD
OC               39 Drntest.oc OLD
DATA(BINARY)     38 Drntest.bdn REPLACE
PCG              18 Drntest.pcg OLD
LPF              14 Drntest.lpf OLD
CHD              17 Drntest.chd OLD
DRN              22 Drntest.drn OLD
HOB              41 Drntest.ob_hob OLD
DATA             42 Drntest.hob_out REPLACE
