BEGIN OPTIONS
  LISTING FreezingWallPest.soeOut
  INSTRUCTION FreezingWallPest.PestIns
END OPTIONS

BEGIN OBSERVATION_FILES
END OBSERVATION_FILES

BEGIN IDENTIFIERS
END IDENTIFIERS

BEGIN DERIVED_OBSERVATIONS
END DERIVED_OBSERVATIONS
