# Name File for MODFLOW created on 12/3/2021 by ModelMuse Version 4.3.0.74
BEGIN OPTIONS
  LIST HfbMf6Test2.lst
  PRINT_INPUT
  SAVE_FLOWS
END OPTIONS

BEGIN PACKAGES
  DIS6         HfbMf6Test2.dis  DIS
  IC6          HfbMf6Test2.ic  IC
  NPF6         HfbMf6Test2.npf  NPF
  OBS6         HfbMf6Test2.ob_gw
  OC6          HfbMf6Test2.oc  OC
  CHD6         HfbMf6Test2.chd  CHD-1
  HFB6         HfbMf6Test2.hfb  HFB
END PACKAGES
