# OBS: Observation Utility file created on 7/13/2021 by ModelMuse version 4.3.0.56.
BEGIN OPTIONS
    DIGITS     10
    PRINT_INPUT
END OPTIONS

BEGIN CONTINUOUS FILEOUT HfbMf6Test2.ob_gw_out_head.csv
  'hd_test_H1' head     1     2     7
  'hd_test_H2' head     1     2     8
  'hd_test_H3' head     1     3     8
  'hd_test_H4' head     1     3     7
END CONTINUOUS

