# HFB: Horizontal Flow Barrier package file created on 7/13/2021 by ModelMuse version 4.3.0.56.
BEGIN OPTIONS
    PRINT_INPUT
END OPTIONS

BEGIN DIMENSIONS
  MAXHFB    80
END DIMENSIONS

BEGIN PERIOD      1
     3     3     7     3     4     7  1.016624362401E-009  # (1E-9 in Object0.)/(a in Object0.)
     4     3     7     4     4     7  1.016624362401E-009  # (1E-9 in Object0.)/(a in Object0.)
     5     3     7     5     4     7  1.016624362401E-009  # (1E-9 in Object0.)/(a in Object0.)
     3     4     8     3     3     8  1.016624362401E-009  # (1E-9 in Object0.)/(a in Object0.)
     4     4     8     4     3     8  1.016624362401E-009  # (1E-9 in Object0.)/(a in Object0.)
     5     4     8     5     3     8  1.016624362401E-009  # (1E-9 in Object0.)/(a in Object0.)
     3     4     9     3     3     9  0.000000000000E+000  # (1E-9 in Object0.)/(a in Object0.)
     3     4     9     3     4    10  1.217478166712E-009  # (1E-9 in Object0.)/(a in Object0.)
     4     4     9     4     3     9  0.000000000000E+000  # (1E-9 in Object0.)/(a in Object0.)
     4     4     9     4     4    10  1.217478166712E-009  # (1E-9 in Object0.)/(a in Object0.)
     5     4     9     5     3     9  0.000000000000E+000  # (1E-9 in Object0.)/(a in Object0.)
     5     4     9     5     4    10  1.217478166712E-009  # (1E-9 in Object0.)/(a in Object0.)
     3     5    10     3     5     9  1.217478166712E-009  # (1E-9 in Object0.)/(a in Object0.)
     4     5    10     4     5     9  1.217478166712E-009  # (1E-9 in Object0.)/(a in Object0.)
     5     5    10     5     5     9  1.217478166712E-009  # (1E-9 in Object0.)/(a in Object0.)
     6     6    10     6     5    10  0.000000000000E+000  # (1E-9 in Object0.)/(a in Object0.)
     7     6    10     7     5    10  0.000000000000E+000  # (1E-9 in Object0.)/(a in Object0.)
     6     9    10     6     8    10  1.077032961427E-009  # (1E-9 in Object0.)/(a in Object0.)
     7     9    10     7     8    10  1.077032961427E-009  # (1E-9 in Object0.)/(a in Object0.)
     6     9     9     6    10     9  1.077032961427E-009  # (1E-9 in Object0.)/(a in Object0.)
     6     9     9     6     9    10  0.000000000000E+000  # (1E-9 in Object0.)/(a in Object0.)
     7     9     9     7    10     9  1.077032961427E-009  # (1E-9 in Object0.)/(a in Object0.)
     7     9     9     7     9    10  0.000000000000E+000  # (1E-9 in Object0.)/(a in Object0.)
     6     9     8     6    10     8  1.023809359113E-009  # (1E-9 in Object0.)/(a in Object0.)
     7     9     8     7    10     8  1.023809359113E-009  # (1E-9 in Object0.)/(a in Object0.)
     6     9     7     6     9     8  0.000000000000E+000  # (1E-9 in Object0.)/(a in Object0.)
     7     9     7     7     9     8  0.000000000000E+000  # (1E-9 in Object0.)/(a in Object0.)
     6     9     7     6     8     7  1.212338203101E-009  # (1E-9 in Object0.)/(a in Object0.)
     7     9     7     7     8     7  1.212338203101E-009  # (1E-9 in Object0.)/(a in Object0.)
     6     8     6     6     9     6  1.212338203101E-009  # (1E-9 in Object0.)/(a in Object0.)
     6     8     6     6     8     5  0.000000000000E+000  # (1E-9 in Object0.)/(a in Object0.)
     7     8     6     7     9     6  1.212338203101E-009  # (1E-9 in Object0.)/(a in Object0.)
     7     8     6     7     8     5  0.000000000000E+000  # (1E-9 in Object0.)/(a in Object0.)
     6     7     5     6     8     5  1.212338203101E-009  # (1E-9 in Object0.)/(a in Object0.)
     7     7     5     7     8     5  1.212338203101E-009  # (1E-9 in Object0.)/(a in Object0.)
     6     7     4     6     6     4  1.212338203101E-009  # (1E-9 in Object0.)/(a in Object0.)
     6     7     4     6     7     5  0.000000000000E+000  # (1E-9 in Object0.)/(a in Object0.)
     7     7     4     7     6     4  1.212338203101E-009  # (1E-9 in Object0.)/(a in Object0.)
     7     7     4     7     7     5  0.000000000000E+000  # (1E-9 in Object0.)/(a in Object0.)
     6     6     3     6     6     4  1.079805906453E-009  # (1E-9 in Object0.)/(a in Object0.)
     7     6     3     7     6     4  1.079805906453E-009  # (1E-9 in Object0.)/(a in Object0.)
     6     5     3     6     6     3  0.000000000000E+000  # (1E-9 in Object0.)/(a in Object0.)
     6     5     3     6     5     2  1.079805906453E-009  # (1E-9 in Object0.)/(a in Object0.)
     7     5     3     7     6     3  0.000000000000E+000  # (1E-9 in Object0.)/(a in Object0.)
     7     5     3     7     5     2  1.079805906453E-009  # (1E-9 in Object0.)/(a in Object0.)
     6     4     3     6     4     2  1.000739371635E-009  # (1E-9 in Object0.)/(a in Object0.)
     7     4     3     7     4     2  1.000739371635E-009  # (1E-9 in Object0.)/(a in Object0.)
     6     3     3     6     4     3  1.054092553389E-009  # (1E-9 in Object0.)/(a in Object0.)
     6     3     3     6     3     4  0.000000000000E+000  # (1E-9 in Object0.)/(a in Object0.)
     7     3     3     7     4     3  1.054092553389E-009  # (1E-9 in Object0.)/(a in Object0.)
     7     3     3     7     3     4  0.000000000000E+000  # (1E-9 in Object0.)/(a in Object0.)
     6     3     4     6     2     4  1.008849730028E-009  # (1E-9 in Object0.)/(a in Object0.)
     7     3     4     7     2     4  1.008849730028E-009  # (1E-9 in Object0.)/(a in Object0.)
     6     3     5     6     2     5  1.008849730028E-009  # (1E-9 in Object0.)/(a in Object0.)
     6     3     5     6     3     6  0.000000000000E+000  # (1E-9 in Object0.)/(a in Object0.)
     7     3     5     7     2     5  1.008849730028E-009  # (1E-9 in Object0.)/(a in Object0.)
     7     3     5     7     3     6  0.000000000000E+000  # (1E-9 in Object0.)/(a in Object0.)
     3     3     6     3     4     6  1.068000468165E-009  # (1E-9 in Object0.)/(a in Object0.)
     4     3     6     4     4     6  1.068000468165E-009  # (1E-9 in Object0.)/(a in Object0.)
     5     3     6     5     4     6  1.068000468165E-009  # (1E-9 in Object0.)/(a in Object0.)
     1     2     2     1     2     1  1.100000000000E-008  # (1E-8 in Object5.)/(1 in Object5.)
     2     2     2     2     2     1  1.100000000000E-008  # (1E-8 in Object5.)/(1 in Object5.)
     1     3     2     1     3     1  1.100000000000E-008  # (1E-8 in Object5.)/(1 in Object5.)
     2     3     2     2     3     1  1.100000000000E-008  # (1E-8 in Object5.)/(1 in Object5.)
     1     4     2     1     4     1  1.100000000000E-008  # (1E-8 in Object5.)/(1 in Object5.)
     2     4     2     2     4     1  1.100000000000E-008  # (1E-8 in Object5.)/(1 in Object5.)
     1     5     2     1     5     1  1.100000000000E-008  # (1E-8 in Object5.)/(1 in Object5.)
     2     5     2     2     5     1  1.100000000000E-008  # (1E-8 in Object5.)/(1 in Object5.)
     1     6     2     1     6     1  1.100000000000E-008  # (1E-8 in Object5.)/(1 in Object5.)
     2     6     2     2     6     1  1.100000000000E-008  # (1E-8 in Object5.)/(1 in Object5.)
     1     7     2     1     7     1  1.100000000000E-008  # (1E-8 in Object5.)/(1 in Object5.)
     2     7     2     2     7     1  1.100000000000E-008  # (1E-8 in Object5.)/(1 in Object5.)
     1     8     2     1     8     1  1.100000000000E-008  # (1E-8 in Object5.)/(1 in Object5.)
     2     8     2     2     8     1  1.100000000000E-008  # (1E-8 in Object5.)/(1 in Object5.)
     1     9     4     1    10     4  2.200000000000E-008  # (2E-8 in Object6.)/(1 in Object6.)
     2     9     4     2    10     4  2.200000000000E-008  # (2E-8 in Object6.)/(1 in Object6.)
     1     9     5     1    10     5  2.200000000000E-008  # (2E-8 in Object6.)/(1 in Object6.)
     2     9     5     2    10     5  2.200000000000E-008  # (2E-8 in Object6.)/(1 in Object6.)
     1     9     6     1    10     6  2.200000000000E-008  # (2E-8 in Object6.)/(1 in Object6.)
     2     9     6     2    10     6  2.200000000000E-008  # (2E-8 in Object6.)/(1 in Object6.)
END PERIOD 

