# Name File for MODFLOW created on 7/13/2021 by ModelMuse Version 4.3.0.56
BEGIN OPTIONS
  LIST ..\..\output\output.HfbMf6Test2\HfbMf6Test2.lst
  PRINT_INPUT
  SAVE_FLOWS
END OPTIONS

BEGIN PACKAGES
  DIS6         ..\..\model\model.HfbMf6Test2\HfbMf6Test2.dis
  IC6          ..\..\model\model.HfbMf6Test2\HfbMf6Test2.ic
  NPF6         ..\..\model\model.HfbMf6Test2\HfbMf6Test2.npf
  OBS6         ..\..\model\model.HfbMf6Test2\HfbMf6Test2.ob_gw
  OC6          ..\..\model\model.HfbMf6Test2\HfbMf6Test2.oc
  CHD6         ..\..\model\model.HfbMf6Test2\HfbMf6Test2.chd
  HFB6         ..\..\model\model.HfbMf6Test2\HfbMf6Test2.hfb
END PACKAGES
