BEGIN OPTIONS
  LISTING HfbMf6Test2.Mf6ObsExtInsLst
  INSTRUCTION HfbMf6Test2.PestIns
END OPTIONS

BEGIN OBSERVATION_FILES
FILENAME "HfbMf6Test2.ob_gw_out_head.csv" TEXT
END OBSERVATION_FILES

BEGIN IDENTIFIERS
  ID hd_test_H1
  LOCATION 650 -150
  OBSNAME hd_test_H1_1 1

  ID hd_test_H2
  LOCATION 750 -150
  OBSNAME hd_test_H2_1 1

  ID hd_test_H3
  LOCATION 750 -250
  OBSNAME hd_test_H3_1 1

  ID hd_test_H4
  LOCATION 650 -250
  OBSNAME hd_test_H4_1 1

END IDENTIFIERS

BEGIN DERIVED_OBSERVATIONS
# Defined by Object8
  OBSNAME head PRINT
  INTERPOLATE 652.020202020202 -164.927048260382 hd_test_H1_1 hd_test_H2_1 hd_test_H3_1 hd_test_H4_1

END DERIVED_OBSERVATIONS
