BEGIN TIMING
  TDIS6 'HfbMf6Test2.tdis'
END TIMING

BEGIN MODELS
  GWF6 'HfbMf6Test2.nam' 'MODFLOW'
END MODELS

BEGIN EXCHANGES
END EXCHANGES

BEGIN SOLUTIONGROUP     1
  MXITER     1
  IMS6 'HfbMf6Test2.ims' 'MODFLOW' 
END SOLUTIONGROUP

