# UZF: Unsaturated-Zone Flow package file created on 7/6/2021 by ModelMuse version 4.3.0.56.
# MODFLOW2005 UZF Input File
# CONSTANT     0.15              1.000 (FREE)       1     #THTI after THTS
# NUZTOP IUZFOPT IRUNFLG IETFLG IUZCB1 IUZFCB2 [NTRAIL2 NSETS2] NUZGAG SURFDEP
OPTIONS
END
     1     2     1     1     0    -9    20    20     0  5.000000000000E-001  # Data Set 1b: NUZTOP IUZFOPT IRUNFLG IETFLG IUZFCB1 IUZFCB2 NTRAIL2 NSETS2 NUZGAG SURFDEP
INTERNAL 1 (FREE)        5 # Data Set 2: IUZFBND
     0     1     1     1     1     1
     0     1     1     1     1     1
     0     1     1     1     0     1
     0     1     1     1     0     1
     0     1     1     1     1     1
     0     1     1     1     1     1
INTERNAL 1 (FREE)        5 # Data Set 3: IRUNBND
     0 100007 100008 100014 100015 100015
     0 100007 100008 100014 100015 100015
     0 100011 100011 100014     0 100016
     0 100009 100010 100014     0 100018
     0 100009 100010 100017 100017 100018
     0 100009 100010 100019 100019 100018
CONSTANT     3.500000000000E+000  # Data Set 5: EPS
CONSTANT     2.500000000000E-001  # Data Set 6a: THTS
CONSTANT     1.500000000000E-001  # Data Set 7: THTI
     0 # Data Set 9, Stress Period      1: NUZF1
CONSTANT     0.000000000000E+000  # # Data Set 10: FINF
     0 # Data Set 11, Stress Period      1: NUZF2
CONSTANT     2.624900100000E-003  # # Data Set 12: PET
     0 # Data Set 13, Stress Period      1: NUZF3
CONSTANT     2.500000000000E-001  # # Data Set 14: EXTDP
     0 # Data Set 5, Stress Period      1: NUZF4
CONSTANT     5.000000100000E-002  # # Data Set 16: EXTWC
     0 # Data Set 9, Stress Period      2: NUZF1
CONSTANT     0.000000000000E+000  # # Data Set 10: FINF
     0 # Data Set 11, Stress Period      2: NUZF2
CONSTANT     2.624900100000E-003  # # Data Set 12: PET
     0 # Data Set 13, Stress Period      2: NUZF3
CONSTANT     2.500000000000E-001  # # Data Set 14: EXTDP
     0 # Data Set 5, Stress Period      2: NUZF4
CONSTANT     5.000000100000E-002  # # Data Set 16: EXTWC
     0 # Data Set 9, Stress Period      3: NUZF1
CONSTANT     0.000000000000E+000  # # Data Set 10: FINF
     0 # Data Set 11, Stress Period      3: NUZF2
CONSTANT     2.624900100000E-003  # # Data Set 12: PET
     0 # Data Set 13, Stress Period      3: NUZF3
CONSTANT     2.500000000000E-001  # # Data Set 14: EXTDP
     0 # Data Set 5, Stress Period      3: NUZF4
CONSTANT     5.000000100000E-002  # # Data Set 16: EXTWC
     0 # Data Set 9, Stress Period      4: NUZF1
CONSTANT     0.000000000000E+000  # # Data Set 10: FINF
     0 # Data Set 11, Stress Period      4: NUZF2
CONSTANT     2.624900100000E-003  # # Data Set 12: PET
     0 # Data Set 13, Stress Period      4: NUZF3
CONSTANT     2.500000000000E-001  # # Data Set 14: EXTDP
     0 # Data Set 5, Stress Period      4: NUZF4
CONSTANT     5.000000100000E-002  # # Data Set 16: EXTWC
     0 # Data Set 9, Stress Period      5: NUZF1
CONSTANT     0.000000000000E+000  # # Data Set 10: FINF
     0 # Data Set 11, Stress Period      5: NUZF2
CONSTANT     2.624900100000E-003  # # Data Set 12: PET
     0 # Data Set 13, Stress Period      5: NUZF3
CONSTANT     2.500000000000E-001  # # Data Set 14: EXTDP
     0 # Data Set 5, Stress Period      5: NUZF4
CONSTANT     5.000000100000E-002  # # Data Set 16: EXTWC
     0 # Data Set 9, Stress Period      6: NUZF1
CONSTANT     0.000000000000E+000  # # Data Set 10: FINF
     0 # Data Set 11, Stress Period      6: NUZF2
CONSTANT     2.624900100000E-003  # # Data Set 12: PET
     0 # Data Set 13, Stress Period      6: NUZF3
CONSTANT     2.500000000000E-001  # # Data Set 14: EXTDP
     0 # Data Set 5, Stress Period      6: NUZF4
CONSTANT     5.000000100000E-002  # # Data Set 16: EXTWC
     0 # Data Set 9, Stress Period      7: NUZF1
INTERNAL 1.0 (FREE)       12 # # Data Set 10: FINF
  0.000000000000E+000   7.619999800000E-004   7.619999800000E-004   7.619999800000E-004   7.619999800000E-004   7.619999800000E-004 
  0.000000000000E+000   7.619999800000E-004   7.619999800000E-004   7.619999800000E-004   7.619999800000E-004   7.619999800000E-004 
  0.000000000000E+000   7.619999800000E-004   7.619999800000E-004   7.619999800000E-004   7.619999800000E-004   7.619999800000E-004 
  0.000000000000E+000   7.619999800000E-004   0.000000000000E+000   0.000000000000E+000   0.000000000000E+000   0.000000000000E+000 
  0.000000000000E+000   7.619999800000E-004   0.000000000000E+000   0.000000000000E+000   0.000000000000E+000   0.000000000000E+000 
  0.000000000000E+000   7.619999800000E-004   0.000000000000E+000   0.000000000000E+000   0.000000000000E+000   0.000000000000E+000 
     0 # Data Set 11, Stress Period      7: NUZF2
CONSTANT     2.624900100000E-003  # # Data Set 12: PET
     0 # Data Set 13, Stress Period      7: NUZF3
CONSTANT     2.500000000000E-001  # # Data Set 14: EXTDP
     0 # Data Set 5, Stress Period      7: NUZF4
CONSTANT     5.000000100000E-002  # # Data Set 16: EXTWC
     0 # Data Set 9, Stress Period      8: NUZF1
CONSTANT     0.000000000000E+000  # # Data Set 10: FINF
     0 # Data Set 11, Stress Period      8: NUZF2
CONSTANT     2.624900100000E-003  # # Data Set 12: PET
     0 # Data Set 13, Stress Period      8: NUZF3
CONSTANT     2.500000000000E-001  # # Data Set 14: EXTDP
     0 # Data Set 5, Stress Period      8: NUZF4
CONSTANT     5.000000100000E-002  # # Data Set 16: EXTWC
     0 # Data Set 9, Stress Period      9: NUZF1
CONSTANT     0.000000000000E+000  # # Data Set 10: FINF
     0 # Data Set 11, Stress Period      9: NUZF2
CONSTANT     2.624900100000E-003  # # Data Set 12: PET
     0 # Data Set 13, Stress Period      9: NUZF3
CONSTANT     2.500000000000E-001  # # Data Set 14: EXTDP
     0 # Data Set 5, Stress Period      9: NUZF4
CONSTANT     5.000000100000E-002  # # Data Set 16: EXTWC
     0 # Data Set 9, Stress Period     10: NUZF1
CONSTANT     0.000000000000E+000  # # Data Set 10: FINF
     0 # Data Set 11, Stress Period     10: NUZF2
CONSTANT     2.624900100000E-003  # # Data Set 12: PET
     0 # Data Set 13, Stress Period     10: NUZF3
CONSTANT     2.500000000000E-001  # # Data Set 14: EXTDP
     0 # Data Set 5, Stress Period     10: NUZF4
CONSTANT     5.000000100000E-002  # # Data Set 16: EXTWC
     0 # Data Set 9, Stress Period     11: NUZF1
CONSTANT     0.000000000000E+000  # # Data Set 10: FINF
     0 # Data Set 11, Stress Period     11: NUZF2
CONSTANT     2.624900100000E-003  # # Data Set 12: PET
     0 # Data Set 13, Stress Period     11: NUZF3
CONSTANT     2.500000000000E-001  # # Data Set 14: EXTDP
     0 # Data Set 5, Stress Period     11: NUZF4
CONSTANT     5.000000100000E-002  # # Data Set 16: EXTWC
     0 # Data Set 9, Stress Period     12: NUZF1
CONSTANT     0.000000000000E+000  # # Data Set 10: FINF
     0 # Data Set 11, Stress Period     12: NUZF2
CONSTANT     2.624900100000E-003  # # Data Set 12: PET
     0 # Data Set 13, Stress Period     12: NUZF3
CONSTANT     2.500000000000E-001  # # Data Set 14: EXTDP
     0 # Data Set 5, Stress Period     12: NUZF4
CONSTANT     5.000000100000E-002  # # Data Set 16: EXTWC
     0 # Data Set 9, Stress Period     13: NUZF1
CONSTANT     0.000000000000E+000  # # Data Set 10: FINF
     0 # Data Set 11, Stress Period     13: NUZF2
CONSTANT     2.624900100000E-003  # # Data Set 12: PET
     0 # Data Set 13, Stress Period     13: NUZF3
CONSTANT     2.500000000000E-001  # # Data Set 14: EXTDP
     0 # Data Set 5, Stress Period     13: NUZF4
CONSTANT     5.000000100000E-002  # # Data Set 16: EXTWC
     0 # Data Set 9, Stress Period     14: NUZF1
CONSTANT     0.000000000000E+000  # # Data Set 10: FINF
     0 # Data Set 11, Stress Period     14: NUZF2
CONSTANT     2.624900100000E-003  # # Data Set 12: PET
     0 # Data Set 13, Stress Period     14: NUZF3
CONSTANT     2.500000000000E-001  # # Data Set 14: EXTDP
     0 # Data Set 5, Stress Period     14: NUZF4
CONSTANT     5.000000100000E-002  # # Data Set 16: EXTWC
     0 # Data Set 9, Stress Period     15: NUZF1
CONSTANT     0.000000000000E+000  # # Data Set 10: FINF
     0 # Data Set 11, Stress Period     15: NUZF2
CONSTANT     2.624900100000E-003  # # Data Set 12: PET
     0 # Data Set 13, Stress Period     15: NUZF3
CONSTANT     2.500000000000E-001  # # Data Set 14: EXTDP
     0 # Data Set 5, Stress Period     15: NUZF4
CONSTANT     5.000000100000E-002  # # Data Set 16: EXTWC
     0 # Data Set 9, Stress Period     16: NUZF1
CONSTANT     0.000000000000E+000  # # Data Set 10: FINF
     0 # Data Set 11, Stress Period     16: NUZF2
CONSTANT     2.624900100000E-003  # # Data Set 12: PET
     0 # Data Set 13, Stress Period     16: NUZF3
CONSTANT     2.500000000000E-001  # # Data Set 14: EXTDP
     0 # Data Set 5, Stress Period     16: NUZF4
CONSTANT     5.000000100000E-002  # # Data Set 16: EXTWC
     0 # Data Set 9, Stress Period     17: NUZF1
CONSTANT     0.000000000000E+000  # # Data Set 10: FINF
     0 # Data Set 11, Stress Period     17: NUZF2
CONSTANT     2.624900100000E-003  # # Data Set 12: PET
     0 # Data Set 13, Stress Period     17: NUZF3
CONSTANT     2.500000000000E-001  # # Data Set 14: EXTDP
     0 # Data Set 5, Stress Period     17: NUZF4
CONSTANT     5.000000100000E-002  # # Data Set 16: EXTWC
     0 # Data Set 9, Stress Period     18: NUZF1
CONSTANT     0.000000000000E+000  # # Data Set 10: FINF
     0 # Data Set 11, Stress Period     18: NUZF2
CONSTANT     2.624900100000E-003  # # Data Set 12: PET
     0 # Data Set 13, Stress Period     18: NUZF3
CONSTANT     2.500000000000E-001  # # Data Set 14: EXTDP
     0 # Data Set 5, Stress Period     18: NUZF4
CONSTANT     5.000000100000E-002  # # Data Set 16: EXTWC
     0 # Data Set 9, Stress Period     19: NUZF1
INTERNAL 1.0 (FREE)       12 # # Data Set 10: FINF
  0.000000000000E+000   2.540000000000E-002   2.540000000000E-002   2.540000000000E-002   2.540000000000E-002   2.540000000000E-002 
  0.000000000000E+000   2.540000000000E-002   2.540000000000E-002   2.540000000000E-002   2.540000000000E-002   2.540000000000E-002 
  0.000000000000E+000   2.540000000000E-002   2.540000000000E-002   2.540000000000E-002   2.540000000000E-002   2.540000000000E-002 
  0.000000000000E+000   2.540000000000E-002   2.260999900000E-002   2.260999900000E-002   2.260999900000E-002   2.260999900000E-002 
  0.000000000000E+000   2.540000000000E-002   2.260999900000E-002   2.260999900000E-002   2.260999900000E-002   2.260999900000E-002 
  0.000000000000E+000   2.540000000000E-002   2.260999900000E-002   2.260999900000E-002   2.260999900000E-002   2.260999900000E-002 
     0 # Data Set 11, Stress Period     19: NUZF2
CONSTANT     2.624900100000E-003  # # Data Set 12: PET
     0 # Data Set 13, Stress Period     19: NUZF3
CONSTANT     2.500000000000E-001  # # Data Set 14: EXTDP
     0 # Data Set 5, Stress Period     19: NUZF4
CONSTANT     5.000000100000E-002  # # Data Set 16: EXTWC
     0 # Data Set 9, Stress Period     20: NUZF1
CONSTANT     0.000000000000E+000  # # Data Set 10: FINF
     0 # Data Set 11, Stress Period     20: NUZF2
CONSTANT     2.624900100000E-003  # # Data Set 12: PET
     0 # Data Set 13, Stress Period     20: NUZF3
CONSTANT     2.500000000000E-001  # # Data Set 14: EXTDP
     0 # Data Set 5, Stress Period     20: NUZF4
CONSTANT     5.000000100000E-002  # # Data Set 16: EXTWC
     0 # Data Set 9, Stress Period     21: NUZF1
CONSTANT     0.000000000000E+000  # # Data Set 10: FINF
     0 # Data Set 11, Stress Period     21: NUZF2
CONSTANT     2.624900100000E-003  # # Data Set 12: PET
     0 # Data Set 13, Stress Period     21: NUZF3
CONSTANT     2.500000000000E-001  # # Data Set 14: EXTDP
     0 # Data Set 5, Stress Period     21: NUZF4
CONSTANT     5.000000100000E-002  # # Data Set 16: EXTWC
     0 # Data Set 9, Stress Period     22: NUZF1
CONSTANT     0.000000000000E+000  # # Data Set 10: FINF
     0 # Data Set 11, Stress Period     22: NUZF2
CONSTANT     2.624900100000E-003  # # Data Set 12: PET
     0 # Data Set 13, Stress Period     22: NUZF3
CONSTANT     2.500000000000E-001  # # Data Set 14: EXTDP
     0 # Data Set 5, Stress Period     22: NUZF4
CONSTANT     5.000000100000E-002  # # Data Set 16: EXTWC
     0 # Data Set 9, Stress Period     23: NUZF1
CONSTANT     0.000000000000E+000  # # Data Set 10: FINF
     0 # Data Set 11, Stress Period     23: NUZF2
CONSTANT     2.624900100000E-003  # # Data Set 12: PET
     0 # Data Set 13, Stress Period     23: NUZF3
CONSTANT     2.500000000000E-001  # # Data Set 14: EXTDP
     0 # Data Set 5, Stress Period     23: NUZF4
CONSTANT     5.000000100000E-002  # # Data Set 16: EXTWC
     0 # Data Set 9, Stress Period     24: NUZF1
CONSTANT     0.000000000000E+000  # # Data Set 10: FINF
     0 # Data Set 11, Stress Period     24: NUZF2
CONSTANT     2.624900100000E-003  # # Data Set 12: PET
     0 # Data Set 13, Stress Period     24: NUZF3
CONSTANT     2.500000000000E-001  # # Data Set 14: EXTDP
     0 # Data Set 5, Stress Period     24: NUZF4
CONSTANT     5.000000100000E-002  # # Data Set 16: EXTWC
     0 # Data Set 9, Stress Period     25: NUZF1
CONSTANT     0.000000000000E+000  # # Data Set 10: FINF
     0 # Data Set 11, Stress Period     25: NUZF2
CONSTANT     2.624900100000E-003  # # Data Set 12: PET
     0 # Data Set 13, Stress Period     25: NUZF3
CONSTANT     2.500000000000E-001  # # Data Set 14: EXTDP
     0 # Data Set 5, Stress Period     25: NUZF4
CONSTANT     5.000000100000E-002  # # Data Set 16: EXTWC
     0 # Data Set 9, Stress Period     26: NUZF1
CONSTANT     0.000000000000E+000  # # Data Set 10: FINF
     0 # Data Set 11, Stress Period     26: NUZF2
CONSTANT     2.624900100000E-003  # # Data Set 12: PET
     0 # Data Set 13, Stress Period     26: NUZF3
CONSTANT     2.500000000000E-001  # # Data Set 14: EXTDP
     0 # Data Set 5, Stress Period     26: NUZF4
CONSTANT     5.000000100000E-002  # # Data Set 16: EXTWC
     0 # Data Set 9, Stress Period     27: NUZF1
INTERNAL 1.0 (FREE)       12 # # Data Set 10: FINF
  0.000000000000E+000   3.047999900000E-003   3.047999900000E-003   3.047999900000E-003   3.047999900000E-003   3.047999900000E-003 
  0.000000000000E+000   3.047999900000E-003   3.047999900000E-003   3.047999900000E-003   3.047999900000E-003   3.047999900000E-003 
  0.000000000000E+000   3.047999900000E-003   3.047999900000E-003   3.047999900000E-003   3.047999900000E-003   3.047999900000E-003 
  0.000000000000E+000   3.047999900000E-003   2.540000000000E-003   2.540000000000E-003   2.540000000000E-003   2.540000000000E-003 
  0.000000000000E+000   3.047999900000E-003   2.540000000000E-003   2.540000000000E-003   2.540000000000E-003   2.540000000000E-003 
  0.000000000000E+000   3.047999900000E-003   2.540000000000E-003   2.540000000000E-003   2.540000000000E-003   2.540000000000E-003 
     0 # Data Set 11, Stress Period     27: NUZF2
CONSTANT     2.624900100000E-003  # # Data Set 12: PET
     0 # Data Set 13, Stress Period     27: NUZF3
CONSTANT     2.500000000000E-001  # # Data Set 14: EXTDP
     0 # Data Set 5, Stress Period     27: NUZF4
CONSTANT     5.000000100000E-002  # # Data Set 16: EXTWC
     0 # Data Set 9, Stress Period     28: NUZF1
INTERNAL 1.0 (FREE)       12 # # Data Set 10: FINF
  0.000000000000E+000   2.285999900000E-003   2.285999900000E-003   2.285999900000E-003   2.285999900000E-003   2.285999900000E-003 
  0.000000000000E+000   2.285999900000E-003   2.285999900000E-003   2.285999900000E-003   2.285999900000E-003   2.285999900000E-003 
  0.000000000000E+000   2.285999900000E-003   2.285999900000E-003   2.285999900000E-003   2.285999900000E-003   2.285999900000E-003 
  0.000000000000E+000   2.285999900000E-003   1.016000100000E-003   1.016000100000E-003   1.016000100000E-003   1.016000100000E-003 
  0.000000000000E+000   2.285999900000E-003   1.016000100000E-003   1.016000100000E-003   1.016000100000E-003   1.016000100000E-003 
  0.000000000000E+000   2.285999900000E-003   1.016000100000E-003   1.016000100000E-003   1.016000100000E-003   1.016000100000E-003 
     0 # Data Set 11, Stress Period     28: NUZF2
CONSTANT     2.624900100000E-003  # # Data Set 12: PET
     0 # Data Set 13, Stress Period     28: NUZF3
CONSTANT     2.500000000000E-001  # # Data Set 14: EXTDP
     0 # Data Set 5, Stress Period     28: NUZF4
CONSTANT     5.000000100000E-002  # # Data Set 16: EXTWC
     0 # Data Set 9, Stress Period     29: NUZF1
CONSTANT     0.000000000000E+000  # # Data Set 10: FINF
     0 # Data Set 11, Stress Period     29: NUZF2
CONSTANT     2.624900100000E-003  # # Data Set 12: PET
     0 # Data Set 13, Stress Period     29: NUZF3
CONSTANT     2.500000000000E-001  # # Data Set 14: EXTDP
     0 # Data Set 5, Stress Period     29: NUZF4
CONSTANT     5.000000100000E-002  # # Data Set 16: EXTWC
     0 # Data Set 9, Stress Period     30: NUZF1
CONSTANT     0.000000000000E+000  # # Data Set 10: FINF
     0 # Data Set 11, Stress Period     30: NUZF2
CONSTANT     2.624900100000E-003  # # Data Set 12: PET
     0 # Data Set 13, Stress Period     30: NUZF3
CONSTANT     2.500000000000E-001  # # Data Set 14: EXTDP
     0 # Data Set 5, Stress Period     30: NUZF4
CONSTANT     5.000000100000E-002  # # Data Set 16: EXTWC
     0 # Data Set 9, Stress Period     31: NUZF1
INTERNAL 1.0 (FREE)       12 # # Data Set 10: FINF
  0.000000000000E+000   1.956000000000E-002   1.956000000000E-002   1.956000000000E-002   1.956000000000E-002   1.956000000000E-002 
  0.000000000000E+000   1.956000000000E-002   1.956000000000E-002   1.956000000000E-002   1.956000000000E-002   1.956000000000E-002 
  0.000000000000E+000   1.956000000000E-002   1.956000000000E-002   1.956000000000E-002   1.956000000000E-002   1.956000000000E-002 
  0.000000000000E+000   1.956000000000E-002   1.651000000000E-002   1.651000000000E-002   1.651000000000E-002   1.651000000000E-002 
  0.000000000000E+000   1.956000000000E-002   1.651000000000E-002   1.651000000000E-002   1.651000000000E-002   1.651000000000E-002 
  0.000000000000E+000   1.956000000000E-002   1.651000000000E-002   1.651000000000E-002   1.651000000000E-002   1.651000000000E-002 
     0 # Data Set 11, Stress Period     31: NUZF2
CONSTANT     2.624900100000E-003  # # Data Set 12: PET
     0 # Data Set 13, Stress Period     31: NUZF3
CONSTANT     2.500000000000E-001  # # Data Set 14: EXTDP
     0 # Data Set 5, Stress Period     31: NUZF4
CONSTANT     5.000000100000E-002  # # Data Set 16: EXTWC
     0 # Data Set 9, Stress Period     32: NUZF1
INTERNAL 1.0 (FREE)       12 # # Data Set 10: FINF
  0.000000000000E+000   3.404000000000E-002   3.404000000000E-002   3.404000000000E-002   3.404000000000E-002   3.404000000000E-002 
  0.000000000000E+000   3.404000000000E-002   3.404000000000E-002   3.404000000000E-002   3.404000000000E-002   3.404000000000E-002 
  0.000000000000E+000   3.404000000000E-002   3.404000000000E-002   3.404000000000E-002   3.404000000000E-002   3.404000000000E-002 
  0.000000000000E+000   3.404000000000E-002   2.819000000000E-002   2.819000000000E-002   2.819000000000E-002   2.819000000000E-002 
  0.000000000000E+000   3.404000000000E-002   2.819000000000E-002   2.819000000000E-002   2.819000000000E-002   2.819000000000E-002 
  0.000000000000E+000   3.404000000000E-002   2.819000000000E-002   2.819000000000E-002   2.819000000000E-002   2.819000000000E-002 
     0 # Data Set 11, Stress Period     32: NUZF2
CONSTANT     2.624900100000E-003  # # Data Set 12: PET
     0 # Data Set 13, Stress Period     32: NUZF3
CONSTANT     2.500000000000E-001  # # Data Set 14: EXTDP
     0 # Data Set 5, Stress Period     32: NUZF4
CONSTANT     5.000000100000E-002  # # Data Set 16: EXTWC
     0 # Data Set 9, Stress Period     33: NUZF1
INTERNAL 1.0 (FREE)       12 # # Data Set 10: FINF
  0.000000000000E+000   5.080000000000E-003   5.080000000000E-003   5.080000000000E-003   5.080000000000E-003   5.080000000000E-003 
  0.000000000000E+000   5.080000000000E-003   5.080000000000E-003   5.080000000000E-003   5.080000000000E-003   5.080000000000E-003 
  0.000000000000E+000   5.080000000000E-003   5.080000000000E-003   5.080000000000E-003   5.080000000000E-003   5.080000000000E-003 
  0.000000000000E+000   5.080000000000E-003   1.270000000000E-003   1.270000000000E-003   1.270000000000E-003   1.270000000000E-003 
  0.000000000000E+000   5.080000000000E-003   1.270000000000E-003   1.270000000000E-003   1.270000000000E-003   1.270000000000E-003 
  0.000000000000E+000   5.080000000000E-003   1.270000000000E-003   1.270000000000E-003   1.270000000000E-003   1.270000000000E-003 
     0 # Data Set 11, Stress Period     33: NUZF2
CONSTANT     2.624900100000E-003  # # Data Set 12: PET
     0 # Data Set 13, Stress Period     33: NUZF3
CONSTANT     2.500000000000E-001  # # Data Set 14: EXTDP
     0 # Data Set 5, Stress Period     33: NUZF4
CONSTANT     5.000000100000E-002  # # Data Set 16: EXTWC
     0 # Data Set 9, Stress Period     34: NUZF1
CONSTANT     0.000000000000E+000  # # Data Set 10: FINF
     0 # Data Set 11, Stress Period     34: NUZF2
CONSTANT     2.624900100000E-003  # # Data Set 12: PET
     0 # Data Set 13, Stress Period     34: NUZF3
CONSTANT     2.500000000000E-001  # # Data Set 14: EXTDP
     0 # Data Set 5, Stress Period     34: NUZF4
CONSTANT     5.000000100000E-002  # # Data Set 16: EXTWC
     0 # Data Set 9, Stress Period     35: NUZF1
CONSTANT     0.000000000000E+000  # # Data Set 10: FINF
     0 # Data Set 11, Stress Period     35: NUZF2
CONSTANT     2.624900100000E-003  # # Data Set 12: PET
     0 # Data Set 13, Stress Period     35: NUZF3
CONSTANT     2.500000000000E-001  # # Data Set 14: EXTDP
     0 # Data Set 5, Stress Period     35: NUZF4
CONSTANT     5.000000100000E-002  # # Data Set 16: EXTWC
     0 # Data Set 9, Stress Period     36: NUZF1
CONSTANT     0.000000000000E+000  # # Data Set 10: FINF
     0 # Data Set 11, Stress Period     36: NUZF2
CONSTANT     2.624900100000E-003  # # Data Set 12: PET
     0 # Data Set 13, Stress Period     36: NUZF3
CONSTANT     2.500000000000E-001  # # Data Set 14: EXTDP
     0 # Data Set 5, Stress Period     36: NUZF4
CONSTANT     5.000000100000E-002  # # Data Set 16: EXTWC
     0 # Data Set 9, Stress Period     37: NUZF1
INTERNAL 1.0 (FREE)       12 # # Data Set 10: FINF
  0.000000000000E+000   1.778000000000E-003   1.778000000000E-003   1.778000000000E-003   1.778000000000E-003   1.778000000000E-003 
  0.000000000000E+000   1.778000000000E-003   1.778000000000E-003   1.778000000000E-003   1.778000000000E-003   1.778000000000E-003 
  0.000000000000E+000   1.778000000000E-003   1.778000000000E-003   1.778000000000E-003   1.778000000000E-003   1.778000000000E-003 
  0.000000000000E+000   1.778000000000E-003   1.270000000000E-003   1.270000000000E-003   1.270000000000E-003   1.270000000000E-003 
  0.000000000000E+000   1.778000000000E-003   1.270000000000E-003   1.270000000000E-003   1.270000000000E-003   1.270000000000E-003 
  0.000000000000E+000   1.778000000000E-003   1.270000000000E-003   1.270000000000E-003   1.270000000000E-003   1.270000000000E-003 
     0 # Data Set 11, Stress Period     37: NUZF2
CONSTANT     2.624900100000E-003  # # Data Set 12: PET
     0 # Data Set 13, Stress Period     37: NUZF3
CONSTANT     2.500000000000E-001  # # Data Set 14: EXTDP
     0 # Data Set 5, Stress Period     37: NUZF4
CONSTANT     5.000000100000E-002  # # Data Set 16: EXTWC
     0 # Data Set 9, Stress Period     38: NUZF1
INTERNAL 1.0 (FREE)       12 # # Data Set 10: FINF
  0.000000000000E+000   0.000000000000E+000   0.000000000000E+000   0.000000000000E+000   0.000000000000E+000   0.000000000000E+000 
  0.000000000000E+000   0.000000000000E+000   0.000000000000E+000   0.000000000000E+000   0.000000000000E+000   0.000000000000E+000 
  0.000000000000E+000   0.000000000000E+000   0.000000000000E+000   0.000000000000E+000   0.000000000000E+000   0.000000000000E+000 
  0.000000000000E+000   0.000000000000E+000   5.080000300000E-004   5.080000300000E-004   5.080000300000E-004   5.080000300000E-004 
  0.000000000000E+000   0.000000000000E+000   5.080000300000E-004   5.080000300000E-004   5.080000300000E-004   5.080000300000E-004 
  0.000000000000E+000   0.000000000000E+000   5.080000300000E-004   5.080000300000E-004   5.080000300000E-004   5.080000300000E-004 
     0 # Data Set 11, Stress Period     38: NUZF2
CONSTANT     2.624900100000E-003  # # Data Set 12: PET
     0 # Data Set 13, Stress Period     38: NUZF3
CONSTANT     2.500000000000E-001  # # Data Set 14: EXTDP
     0 # Data Set 5, Stress Period     38: NUZF4
CONSTANT     5.000000100000E-002  # # Data Set 16: EXTWC
     0 # Data Set 9, Stress Period     39: NUZF1
CONSTANT     0.000000000000E+000  # # Data Set 10: FINF
     0 # Data Set 11, Stress Period     39: NUZF2
CONSTANT     2.624900100000E-003  # # Data Set 12: PET
     0 # Data Set 13, Stress Period     39: NUZF3
CONSTANT     2.500000000000E-001  # # Data Set 14: EXTDP
     0 # Data Set 5, Stress Period     39: NUZF4
CONSTANT     5.000000100000E-002  # # Data Set 16: EXTWC
     0 # Data Set 9, Stress Period     40: NUZF1
CONSTANT     0.000000000000E+000  # # Data Set 10: FINF
     0 # Data Set 11, Stress Period     40: NUZF2
CONSTANT     2.624900100000E-003  # # Data Set 12: PET
     0 # Data Set 13, Stress Period     40: NUZF3
CONSTANT     2.500000000000E-001  # # Data Set 14: EXTDP
     0 # Data Set 5, Stress Period     40: NUZF4
CONSTANT     5.000000100000E-002  # # Data Set 16: EXTWC
     0 # Data Set 9, Stress Period     41: NUZF1
CONSTANT     0.000000000000E+000  # # Data Set 10: FINF
     0 # Data Set 11, Stress Period     41: NUZF2
CONSTANT     2.624900100000E-003  # # Data Set 12: PET
     0 # Data Set 13, Stress Period     41: NUZF3
CONSTANT     2.500000000000E-001  # # Data Set 14: EXTDP
     0 # Data Set 5, Stress Period     41: NUZF4
CONSTANT     5.000000100000E-002  # # Data Set 16: EXTWC
     0 # Data Set 9, Stress Period     42: NUZF1
CONSTANT     0.000000000000E+000  # # Data Set 10: FINF
     0 # Data Set 11, Stress Period     42: NUZF2
CONSTANT     2.624900100000E-003  # # Data Set 12: PET
     0 # Data Set 13, Stress Period     42: NUZF3
CONSTANT     2.500000000000E-001  # # Data Set 14: EXTDP
     0 # Data Set 5, Stress Period     42: NUZF4
CONSTANT     5.000000100000E-002  # # Data Set 16: EXTWC
     0 # Data Set 9, Stress Period     43: NUZF1
CONSTANT     0.000000000000E+000  # # Data Set 10: FINF
     0 # Data Set 11, Stress Period     43: NUZF2
CONSTANT     2.624900100000E-003  # # Data Set 12: PET
     0 # Data Set 13, Stress Period     43: NUZF3
CONSTANT     2.500000000000E-001  # # Data Set 14: EXTDP
     0 # Data Set 5, Stress Period     43: NUZF4
CONSTANT     5.000000100000E-002  # # Data Set 16: EXTWC
     0 # Data Set 9, Stress Period     44: NUZF1
CONSTANT     0.000000000000E+000  # # Data Set 10: FINF
     0 # Data Set 11, Stress Period     44: NUZF2
CONSTANT     2.624900100000E-003  # # Data Set 12: PET
     0 # Data Set 13, Stress Period     44: NUZF3
CONSTANT     2.500000000000E-001  # # Data Set 14: EXTDP
     0 # Data Set 5, Stress Period     44: NUZF4
CONSTANT     5.000000100000E-002  # # Data Set 16: EXTWC
     0 # Data Set 9, Stress Period     45: NUZF1
CONSTANT     0.000000000000E+000  # # Data Set 10: FINF
     0 # Data Set 11, Stress Period     45: NUZF2
CONSTANT     2.624900100000E-003  # # Data Set 12: PET
     0 # Data Set 13, Stress Period     45: NUZF3
CONSTANT     2.500000000000E-001  # # Data Set 14: EXTDP
     0 # Data Set 5, Stress Period     45: NUZF4
CONSTANT     5.000000100000E-002  # # Data Set 16: EXTWC
     0 # Data Set 9, Stress Period     46: NUZF1
CONSTANT     0.000000000000E+000  # # Data Set 10: FINF
     0 # Data Set 11, Stress Period     46: NUZF2
CONSTANT     2.624900100000E-003  # # Data Set 12: PET
     0 # Data Set 13, Stress Period     46: NUZF3
CONSTANT     2.500000000000E-001  # # Data Set 14: EXTDP
     0 # Data Set 5, Stress Period     46: NUZF4
CONSTANT     5.000000100000E-002  # # Data Set 16: EXTWC
     0 # Data Set 9, Stress Period     47: NUZF1
INTERNAL 1.0 (FREE)       12 # # Data Set 10: FINF
  0.000000000000E+000   3.809999900000E-003   3.809999900000E-003   3.809999900000E-003   3.809999900000E-003   3.809999900000E-003 
  0.000000000000E+000   3.809999900000E-003   3.809999900000E-003   3.809999900000E-003   3.809999900000E-003   3.809999900000E-003 
  0.000000000000E+000   3.809999900000E-003   3.809999900000E-003   3.809999900000E-003   3.809999900000E-003   3.809999900000E-003 
  0.000000000000E+000   3.809999900000E-003   2.032000100000E-003   2.032000100000E-003   2.032000100000E-003   2.032000100000E-003 
  0.000000000000E+000   3.809999900000E-003   2.032000100000E-003   2.032000100000E-003   2.032000100000E-003   2.032000100000E-003 
  0.000000000000E+000   3.809999900000E-003   2.032000100000E-003   2.032000100000E-003   2.032000100000E-003   2.032000100000E-003 
     0 # Data Set 11, Stress Period     47: NUZF2
CONSTANT     2.624900100000E-003  # # Data Set 12: PET
     0 # Data Set 13, Stress Period     47: NUZF3
CONSTANT     2.500000000000E-001  # # Data Set 14: EXTDP
     0 # Data Set 5, Stress Period     47: NUZF4
CONSTANT     5.000000100000E-002  # # Data Set 16: EXTWC
     0 # Data Set 9, Stress Period     48: NUZF1
CONSTANT     0.000000000000E+000  # # Data Set 10: FINF
     0 # Data Set 11, Stress Period     48: NUZF2
CONSTANT     2.624900100000E-003  # # Data Set 12: PET
     0 # Data Set 13, Stress Period     48: NUZF3
CONSTANT     2.500000000000E-001  # # Data Set 14: EXTDP
     0 # Data Set 5, Stress Period     48: NUZF4
CONSTANT     5.000000100000E-002  # # Data Set 16: EXTWC
     0 # Data Set 9, Stress Period     49: NUZF1
INTERNAL 1.0 (FREE)       12 # # Data Set 10: FINF
  0.000000000000E+000   5.080000300000E-004   5.080000300000E-004   5.080000300000E-004   5.080000300000E-004   5.080000300000E-004 
  0.000000000000E+000   5.080000300000E-004   5.080000300000E-004   5.080000300000E-004   5.080000300000E-004   5.080000300000E-004 
  0.000000000000E+000   5.080000300000E-004   5.080000300000E-004   5.080000300000E-004   5.080000300000E-004   5.080000300000E-004 