# MODFLOW2005 Basic Package
# Basic Package file created on 7/6/2021 by ModelMuse version 4.3.0.56.
# Number of active cells = 72.
FREE  # OPTIONS
CONSTANT        1 # IBOUND Layer 1
CONSTANT        1 # IBOUND Layer 2
  9.990000000000E+002  # HNOFLO
INTERNAL 1.0 (FREE)       12 # STRT Layer 1
  1.534000000000E+000   1.362000000000E+000   1.413000000000E+000   1.158000000000E+000   1.043000000000E+000   8.706000000000E-001 
  1.534000000000E+000   1.184000000000E+000   1.188000000000E+000   9.792000000000E-001   8.792000000000E-001   8.554000000000E-001 
  1.534000000000E+000   1.257000000000E+000   1.153000000000E+000   1.006000000000E+000   9.445000000000E-001   7.678000000000E-001 
  1.534000000000E+000   1.180000000000E+000   1.144000000000E+000   9.598000000000E-001   9.259000000000E-001   6.595000000000E-001 
  1.534000000000E+000   1.269000000000E+000   1.151000000000E+000   1.026000000000E+000   5.374000000000E-001   5.005000000000E-001 
  1.534000000000E+000   1.357000000000E+000   1.243000000000E+000   1.186000000000E+000   7.546000000000E-001   9.789000000000E-001 
INTERNAL 1.0 (FREE)       12 # STRT Layer 2
  1.530000000000E+000   1.363000000000E+000   1.402000000000E+000   1.157000000000E+000   1.039000000000E+000   8.739000000000E-001 
  1.527000000000E+000   1.196000000000E+000   1.187000000000E+000   9.858000000000E-001   8.854000000000E-001   8.547000000000E-001 
  1.528000000000E+000   1.258000000000E+000   1.153000000000E+000   1.006000000000E+000   9.405000000000E-001   7.711000000000E-001 
  1.526000000000E+000   1.190000000000E+000   1.141000000000E+000   9.648000000000E-001   9.142000000000E-001   6.645000000000E-001 
  1.528000000000E+000   1.272000000000E+000   1.153000000000E+000   1.021000000000E+000   5.595000000000E-001   5.311000000000E-001 
  1.530000000000E+000   1.356000000000E+000   1.242000000000E+000   1.175000000000E+000   7.637000000000E-001   9.646000000000E-001 
