# OBS: Observation Utility file created on 7/7/2021 by ModelMuse version 4.3.0.56.
BEGIN OPTIONS
    DIGITS     10
    PRINT_INPUT
END OPTIONS

BEGIN CONTINUOUS FILEOUT MF6_TestSfrMawLakMvrUzf.gbob_out_ghb.csv
  'ghb_GHB' ghb GHB
  'GHB_MVR' to-mvr GHB
END CONTINUOUS
