# OBS: Observation Utility file created on 1/12/2024 by ModelMuse version 5.1.1.51.
BEGIN OPTIONS
    DIGITS     10
    PRINT_INPUT
END OPTIONS

BEGIN CONTINUOUS FILEOUT MF6_TestSfrMawLakMvrUzf.drob_out_drn.csv
  'drn_DRN' drn Drain
  'mvr_DRN' to-mvr Drain
END CONTINUOUS
