# OBS: Observation Utility file created on 1/12/2024 by ModelMuse version 5.1.1.51.
BEGIN OPTIONS
    DIGITS     10
    PRINT_INPUT
END OPTIONS

BEGIN CONTINUOUS FILEOUT MF6_TestSfrMawLakMvrUzf.rvob_out_riv.csv
  'riv_River' riv River
  'mvr_River' to-mvr River
END CONTINUOUS
