# ETS: Evapotranspiration Segments package file created on 2/16/2024 by ModelMuse version 5.1.1.55.
BEGIN OPTIONS
  AUXILIARY IFACE
  PRINT_INPUT
    SAVE_FLOWS
    BOUNDNAMES
  FIXED_CELL
    OBS6 FILEIN MF6_TestSfrMawLakMvrUzf.ob_evt
END OPTIONS

BEGIN DIMENSIONS
  MAXBOUND    23
  NSEG     1
END DIMENSIONS

BEGIN PERIOD      1
     1    10    10 -1.000000000000E+000   1.000000000000E-008   2.000000000000E+000      0 'ETS' 
     1    10     9 -1.000000000000E+000   1.000000000000E-008   2.000000000000E+000      0 'ETS' 
     1    10     8 -1.000000000000E+000   1.000000000000E-008   2.000000000000E+000      0 'ETS' 
     1    10     7 -1.000000000000E+000   1.000000000000E-008   2.000000000000E+000      0 'ETS' 
     1    10     6 -1.000000000000E+000   1.000000000000E-008   2.000000000000E+000      0 'ETS' 
     1     9    10 -1.000000000000E+000   1.000000000000E-008   2.000000000000E+000      0 'ETS' 
     1     9     9 -1.000000000000E+000   1.000000000000E-008   2.000000000000E+000      0 'ETS' 
     1     9     8 -1.000000000000E+000   1.000000000000E-008   2.000000000000E+000      0 'ETS' 
     1     9     7 -1.000000000000E+000   1.000000000000E-008   2.000000000000E+000      0 'ETS' 
     1     9     6 -1.000000000000E+000   1.000000000000E-008   2.000000000000E+000      0 'ETS' 
     1     8    10 -1.000000000000E+000   1.000000000000E-008   2.000000000000E+000      0 'ETS' 
     1     8     9 -1.000000000000E+000   1.000000000000E-008   2.000000000000E+000      0 'ETS' 
     1     8     8 -1.000000000000E+000   1.000000000000E-008   2.000000000000E+000      0 'ETS' 
     1     8     7 -1.000000000000E+000   1.000000000000E-008   2.000000000000E+000      0 'ETS' 
     1     8     6 -1.000000000000E+000   1.000000000000E-008   2.000000000000E+000      0 'ETS' 
     1     7    10 -1.000000000000E+000   1.000000000000E-008   2.000000000000E+000      0 'ETS' 
     1     7     9 -1.000000000000E+000   1.000000000000E-008   2.000000000000E+000      0 'ETS' 
     1     7     8 -1.000000000000E+000   1.000000000000E-008   2.000000000000E+000      0 'ETS' 
     1     7     7 -1.000000000000E+000   1.000000000000E-008   2.000000000000E+000      0 'ETS' 
     1     7     6 -1.000000000000E+000   1.000000000000E-008   2.000000000000E+000      0 'ETS' 
     1     6    10 -1.000000000000E+000   1.000000000000E-008   2.000000000000E+000      0 'ETS' 
     1     6     9 -1.000000000000E+000   1.000000000000E-008   2.000000000000E+000      0 'ETS' 
     1     6     6 -1.000000000000E+000   1.000000000000E-008   2.000000000000E+000      0 'ETS' 
END PERIOD 

