# Output Control file created on 7/7/2021 by ModelMuse version 4.3.0.56.
BEGIN OPTIONS
  BUDGET FILEOUT 'MF6_TestSfrMawLakMvrUzf.cbc'
  HEAD FILEOUT 'MF6_TestSfrMawLakMvrUzf.bhd'
END OPTIONS

BEGIN PERIOD      1
  SAVE HEAD ALL
  PRINT BUDGET ALL
  SAVE BUDGET ALL
END PERIOD 

