BEGIN OPTIONS
  PRINT_INPUT
END OPTIONS

BEGIN TIMING
  TDIS6 'MF6_TestSfrMawLakMvrUzf.tdis'
END TIMING

BEGIN MODELS
  GWF6 'MF6_TestSfrMawLakMvrUzf.nam' 'MODFLOW'
END MODELS

BEGIN EXCHANGES
END EXCHANGES

BEGIN SOLUTIONGROUP     1
  MXITER     1
  IMS6 'MF6_TestSfrMawLakMvrUzf.ims' 'MODFLOW' 
END SOLUTIONGROUP

