# DRN: Drain package file created on 7/7/2021 by ModelMuse version 4.3.0.56.
BEGIN OPTIONS
    AUXILIARY IFACE
    BOUNDNAMES
    PRINT_INPUT
    SAVE_FLOWS
  MOVER
    OBS6 FILEIN MF6_TestSfrMawLakMvrUzf.ob_drob
END OPTIONS

BEGIN DIMENSIONS
  MAXBOUND     1
END DIMENSIONS

BEGIN PERIOD      1
     1     3     7 -1.000000000000E+000   1.000000000000E+000      0 'Drain'  # Data Set 6: Layer Row Column Elevation Cond IFACE boundname
END PERIOD 

