BEGIN TIMING
  TDIS6 'C:\ModelingTools\ModelMuse\PestTest\MF6_TestSfrMawLakMvrUzf.tdis'
END TIMING

BEGIN MODELS
  GWF6 'C:\ModelingTools\ModelMuse\PestTest\MF6_TestSfrMawLakMvrUzf.nam' 'MODFLOW'
END MODELS

BEGIN EXCHANGES
END EXCHANGES

BEGIN SOLUTIONGROUP     1
  MXITER     1
  IMS6 'C:\ModelingTools\ModelMuse\PestTest\MF6_TestSfrMawLakMvrUzf.ims' 'MODFLOW' 
END SOLUTIONGROUP

