# Name File for MODFLOW created on 7/7/2021 by ModelMuse Version 4.3.0.56
LIST             11 ..\..\output\output.Mnw1Test\Mnw1Test.lst REPLACE
DATA(BINARY)      9 ..\..\output\output.Mnw1Test\Mnw1Test.cbc REPLACE
DIS              12 ..\..\model\model.Mnw1Test\Mnw1Test.dis OLD
BAS6             13 ..\..\model\model.Mnw1Test\Mnw1Test.bas OLD
OC               39 ..\..\model\model.Mnw1Test\Mnw1Test.oc OLD
DATA             37 ..\..\output\output.Mnw1Test\Mnw1Test.fhd REPLACE
DATA             38 ..\..\output\output.Mnw1Test\Mnw1Test.fdn REPLACE
PCG              18 ..\..\model\model.Mnw1Test\Mnw1Test.pcg OLD
BCF6             64 ..\..\model\model.Mnw1Test\Mnw1Test.bcf OLD
CHD              17 ..\..\model\model.Mnw1Test\Mnw1Test.chd OLD
DRN              22 ..\..\model\model.Mnw1Test\Mnw1Test.drn OLD
DROB             44 ..\..\model\model.Mnw1Test\Mnw1Test.ob_drob OLD
DATA             45 ..\..\output\output.Mnw1Test\Mnw1Test.drob_out REPLACE
RCH              24 ..\..\model\model.Mnw1Test\Mnw1Test.rch OLD
MNW1            182 ..\..\model\model.Mnw1Test\Mnw1Test.mnw1 OLD
HOB              41 ..\..\model\model.Mnw1Test\Mnw1Test.ob_hob OLD
DATA             42 ..\..\output\output.Mnw1Test\Mnw1Test.hob_out REPLACE
