# Name File for MODFLOW created on 7/7/2021 by ModelMuse Version 4.3.0.56
LIST             11 Mnw1Test.lst REPLACE
DATA(BINARY)      9 Mnw1Test.cbc REPLACE
DIS              12 Mnw1Test.dis OLD
BAS6             13 Mnw1Test.bas OLD
OC               39 Mnw1Test.oc OLD
DATA             37 Mnw1Test.fhd REPLACE
DATA             38 Mnw1Test.fdn REPLACE
PCG              18 Mnw1Test.pcg OLD
BCF6             64 Mnw1Test.bcf OLD
CHD              17 Mnw1Test.chd OLD
DRN              22 Mnw1Test.drn OLD
DROB             44 Mnw1Test.ob_drob OLD
DATA             45 Mnw1Test.drob_out REPLACE
RCH              24 Mnw1Test.rch OLD
MNW1            182 Mnw1Test.mnw1 OLD
HOB              41 Mnw1Test.ob_hob OLD
DATA             42 Mnw1Test.hob_out REPLACE
