pcf
* control data
restart estimation # RSTFLE PESTMODE
     4     1     1     4    11     1 # NPAR NOBS NPARGP, NPRIOR NOBSGP, MAXCOMPRDIM
     1     1 double nopoint noobsreref # NTPLFLE, NINSFLE, PRECIS, DPOINT, OBSREREF
  1.000000000000E+001  -3.000000000000E+000   3.000000000000E-001   1.000000000000E-002     10     0 lamforgive noderforgive # RLAMBDA1, RLAMFAC, PHIRATSUF, PHIREDLAM, NUMLAM, JACUPDATE, LAMFORGIVE, DERFORGIVE
  3.000000000000E+000   3.000000000000E+000   1.000000000000E-003      0     1 # RELPARMAX, FACPARMAX, FACORIG, IBOUNDSTICK, UPVECBEND
  1.000000000000E-001      1  0.000000000000E+000  noaui nosenreuse boundscale # PHIREDSWH, NOPTSWITCH, SPLITSWH, DOAUI, DOSENREUSE, BOUNDSCALE
    50  5.000000000000E-003      4     4  5.000000000000E-003      4  0.000000000000E+000      1  0.000000000000E+000  # NOPTMAX, PHIREDSTP, NPHISTP, NPHINORED, RELPARSTP, NRELPAR, PHISTOPTHRESH, LASTRUN, PHIABANDON
     1     1     1     0 jcosave nojcosaveitn verboserec reisaveitn parsaveitn noparsaverun # ICOV, ICOR, IEIG, IRES, JCOSAVE, JCOSAVEITN, VERBOSEREC, RESSAVEITN, PARSAVEITN, PARSAVERUN

* singular value decomposition
     1 # SVDMODE
  1000  5.000000000000E-007  # MAXSING, EIGTHRESH
     0 # EIGWRITE

* lsqr
     0 # LSQRMODE
  1.000000000000E-004   1.000000000000E-004   1.000000000000E+003     16 # LSQR_ATOL LSQR_BTOL LSQR_CONLIM LSQR_ITNLIM
     1 # LSQRWRITE

* parameter groups
MNW2 relative  1.000000000000E-002   0.000000000000E+000  switch  1.500000000000E+000  parabolic

* parameter data
MnPump none relative  1.100000000000E+000   0.000000000000E+000   1.000000000000E+001  MNW2  1.000000000000E+000   0.000000000000E+000 
MnPump2 none relative -4.000000000000E-005  -1.000000000000E+001   0.000000000000E+000  MNW2  1.000000000000E+000   0.000000000000E+000 
MnRw none relative  5.100000000000E-001   0.000000000000E+000   1.000000000000E+001  MNW2  1.000000000000E+000   0.000000000000E+000 
MnwPP none relative  8.100000000000E-001   0.000000000000E+000   1.000000000000E+000  MNW2  1.000000000000E+000   0.000000000000E+000 

* observation groups
CHOB_flows
GHB_flows
DRN_flows
RIV_flows
STR_flows
Heads
Head_Changes
regul_Grp1
regul_Grp2
regul_Grp3
regul_Grp4

* observation data
head  0.000000000000E+000   1.000000000000E+000  Heads

* model command line
RunModel.Bat

* model input/output
Mnw2Test.ptf Mnw2Test.pval
Mnw2Test.PestIns Mnw2Test.Mf2005Values

* prior information
# Equation for initial value for parameter MnPump.
 eq_1          1.0 * MnPump = 1.1       1     regul_Grp1
# Equation for initial value for parameter MnPump2.
 eq_2          1.0 * MnPump2 = -4E-005       1     regul_Grp2
# Equation for initial value for parameter MnRw.
 eq_3          1.0 * MnRw = 0.51       1     regul_Grp3
# Equation for initial value for parameter MnwPP.
 eq_4          1.0 * MnwPP = 0.81       1     regul_Grp4

