# Name File for MODFLOW created on 7/7/2021 by ModelMuse Version 4.3.0.56
LIST             11 Mnw2Test.lst REPLACE
DATA(BINARY)      9 Mnw2Test.cbc REPLACE
DIS              12 Mnw2Test.dis OLD
BAS6             13 Mnw2Test.bas OLD
OC               39 Mnw2Test.oc OLD
DATA             37 Mnw2Test.fhd REPLACE
DATA             38 Mnw2Test.fdn REPLACE
PCG              18 Mnw2Test.pcg OLD
LPF              14 Mnw2Test.lpf OLD
CHD              17 Mnw2Test.chd OLD
MNW2             59 Mnw2Test.mnw2 OLD
HOB              41 Mnw2Test.ob_hob OLD
DATA             42 Mnw2Test.hob_out REPLACE
