# DRN: Drain package file created on 7/13/2021 by ModelMuse version 4.3.0.56.
BEGIN OPTIONS
    AUXILIARY IFACE
    BOUNDNAMES
    PRINT_INPUT
    SAVE_FLOWS
END OPTIONS

BEGIN DIMENSIONS
  MAXBOUND     6
END DIMENSIONS

BEGIN PERIOD      1
     1     1     3 -1.000000000000E+000   1.078853046595E+002      0 'Object10'  # Data Set 6: Layer Row Column Elevation Cond IFACE boundname
     1     1     4 -1.000000000000E+000   4.000000000000E+002      0 'Object10'  # Data Set 6: Layer Row Column Elevation Cond IFACE boundname
     1     1     5 -1.000000000000E+000   4.000000000000E+002      0 'Object10'  # Data Set 6: Layer Row Column Elevation Cond IFACE boundname
     1     1     6 -1.000000000000E+000   1.673835125448E+002      0 'Object10'  # Data Set 6: Layer Row Column Elevation Cond IFACE boundname
     1     9     7 -1.000000000000E+000   4.000000000000E+000      0 'Object12'  # Data Set 6: Layer Row Column Elevation Cond IFACE boundname
     1     9     3 -1.000000000000E+000   9.000000000000E+000      0 'Object11'  # Data Set 6: Layer Row Column Elevation Cond IFACE boundname
END PERIOD 

BEGIN PERIOD      2
     1     1     3 -1.000000000000E+000   1.078853046595E+002      0 'Object10'  # Data Set 6: Layer Row Column Elevation Cond IFACE boundname
     1     1     4 -1.000000000000E+000   4.000000000000E+002      0 'Object10'  # Data Set 6: Layer Row Column Elevation Cond IFACE boundname
     1     1     5 -1.000000000000E+000   4.000000000000E+002      0 'Object10'  # Data Set 6: Layer Row Column Elevation Cond IFACE boundname
     1     1     6 -1.000000000000E+000   1.673835125448E+002      0 'Object10'  # Data Set 6: Layer Row Column Elevation Cond IFACE boundname
END PERIOD 

