BEGIN OPTIONS
  LISTING ParamMf6Test.Mf6ObsExtInsLst
  INSTRUCTION ParamMf6Test.PestIns
  VALUES ParamMf6Test.Mf6Values
END OPTIONS

BEGIN OBSERVATION_FILES
FILENAME "ParamMf6Test.ob_gw_out_head.csv" TEXT
END OBSERVATION_FILES

BEGIN IDENTIFIERS
  ID hd_test_H1
  LOCATION 450 -550
  OBSNAME hd_test_H1_1 2

  ID hd_test_H2
  LOCATION 450 -450
  OBSNAME hd_test_H2_1 2

  ID hd_test_H3
  LOCATION 550 -450
  OBSNAME hd_test_H3_1 2

  ID hd_test_H4
  LOCATION 550 -550
  OBSNAME hd_test_H4_1 2

END IDENTIFIERS

BEGIN DERIVED_OBSERVATIONS
# Defined by Object15
  OBSNAME test1 PRINT
  INTERPOLATE 456.720430107527 -521.68458781362 hd_test_H1_1 hd_test_H2_1 hd_test_H3_1 hd_test_H4_1

END DERIVED_OBSERVATIONS
