# Name File for MODFLOW created on 12/3/2021 by ModelMuse Version 4.3.0.74
BEGIN OPTIONS
  LIST ..\..\output\output.ParamMf6Test\ParamMf6Test.lst
  PRINT_INPUT
  SAVE_FLOWS
END OPTIONS

BEGIN PACKAGES
  DIS6         ..\..\model\model.ParamMf6Test\ParamMf6Test.dis  DIS
  IC6          ..\..\model\model.ParamMf6Test\ParamMf6Test.ic  IC
  NPF6         ..\..\model\model.ParamMf6Test\ParamMf6Test.npf  NPF
  OBS6         ..\..\model\model.ParamMf6Test\ParamMf6Test.ob_gw
  STO6         ..\..\model\model.ParamMf6Test\ParamMf6Test.sto  STO
  OC6          ..\..\model\model.ParamMf6Test\ParamMf6Test.oc  OC
  CHD6         ..\..\model\model.ParamMf6Test\ParamMf6Test.chd  CHD-1
  GHB6         ..\..\model\model.ParamMf6Test\ParamMf6Test.ghb  GHB-1
  WEL6         ..\..\model\model.ParamMf6Test\ParamMf6Test.wel  WEL-1
  RIV6         ..\..\model\model.ParamMf6Test\ParamMf6Test.riv  RIV-1
  DRN6         ..\..\model\model.ParamMf6Test\ParamMf6Test.drn  DRN-1
  RCH6         ..\..\model\model.ParamMf6Test\ParamMf6Test.rch  RCH-1
  EVT6         ..\..\model\model.ParamMf6Test\ParamMf6Test.evt  EVT-1
END PACKAGES
