# Name File for MODFLOW created on 7/13/2021 by ModelMuse Version 4.3.0.56
BEGIN OPTIONS
  LIST ParamMf6Test.lst
  PRINT_INPUT
  SAVE_FLOWS
END OPTIONS

BEGIN PACKAGES
  DIS6         ParamMf6Test.dis
  IC6          ParamMf6Test.ic
  NPF6         ParamMf6Test.npf
  OBS6         ParamMf6Test.ob_gw
  STO6         ParamMf6Test.sto
  OC6          ParamMf6Test.oc
  CHD6         ParamMf6Test.chd
  GHB6         ParamMf6Test.ghb
  WEL6         ParamMf6Test.wel
  RIV6         ParamMf6Test.riv
  DRN6         ParamMf6Test.drn
  RCH6         ParamMf6Test.rch
  EVT6         ParamMf6Test.evt
END PACKAGES
