ptf @
etf %
# RCH: Recharge package file created on 7/13/2021 by ModelMuse version 4.3.0.56.
BEGIN OPTIONS
  AUXILIARY IFACE
  PRINT_INPUT
    SAVE_FLOWS
    BOUNDNAMES
  FIXED_CELL
END OPTIONS

BEGIN DIMENSIONS
  MAXBOUND     2
END DIMENSIONS

BEGIN PERIOD      1
     1     6     3 %                    @                    RCH_Par1@ * 2%      0 'Object6' 
END PERIOD 

BEGIN PERIOD      2
END PERIOD 

