# IMS: Iterative Model Solution file created on 7/13/2021 by ModelMuse version 4.3.0.56.
BEGIN OPTIONS
  PRINT_OPTION ALL
  COMPLEXITY SIMPLE
  CSV_OUTER_OUTPUT FILEOUT ParamMf6Test.OuterSolution.CSV
  CSV_INNER_OUTPUT FILEOUT ParamMf6Test.InnerSolution.CSV
END OPTIONS

BEGIN NONLINEAR
  OUTER_DVCLOSE   1.000000000000E-003 
  OUTER_MAXIMUM     25
  UNDER_RELAXATION NONE
  BACKTRACKING_NUMBER     0
END NONLINEAR

BEGIN LINEAR
  INNER_MAXIMUM    50
  INNER_DVCLOSE  1.000000000000E-004 
  INNER_RCLOSE  1.000000000000E-001 
  LINEAR_ACCELERATION CG
END LINEAR

