# OBS: Observation Utility file created on 7/13/2021 by ModelMuse version 4.3.0.56.
BEGIN OPTIONS
    DIGITS     10
    PRINT_INPUT
END OPTIONS

BEGIN CONTINUOUS FILEOUT ParamMf6Test.ob_gw_out_head.csv
  'hd_test_H1' head     1     6     5
  'hd_test_H2' head     1     5     5
  'hd_test_H3' head     1     5     6
  'hd_test_H4' head     1     6     6
END CONTINUOUS

