# RIV: River package file created on 7/13/2021 by ModelMuse version 4.3.0.56.
BEGIN OPTIONS
    AUXILIARY IFACE
    BOUNDNAMES
    PRINT_INPUT
    SAVE_FLOWS
END OPTIONS

BEGIN DIMENSIONS
  MAXBOUND     1
END DIMENSIONS

BEGIN PERIOD      1
     1     8     8  2.000000000000E+000   4.000000000000E+000  -2.000000000000E+000      0 'Object14'  # Data Set 6: Layer Row Column Stage Cond Rbot IFACE boundname
END PERIOD 

