# RCH: Recharge package file created on 8/15/2021 by ModelMuse version 4.3.0.58.
BEGIN OPTIONS
  AUXILIARY IFACE
  PRINT_INPUT
    SAVE_FLOWS
    BOUNDNAMES
  FIXED_CELL
END OPTIONS

BEGIN DIMENSIONS
  MAXBOUND     2
END DIMENSIONS

BEGIN PERIOD      1
     1     6     3  4.000000000000E-009      0 'Object6' 
END PERIOD 

BEGIN PERIOD      2
END PERIOD 

