BEGIN TIMING
  TDIS6 'Pareto.tdis'
END TIMING

BEGIN MODELS
  GWF6 'Pareto.nam' 'MODFLOW'
END MODELS

BEGIN EXCHANGES
END EXCHANGES

BEGIN SOLUTIONGROUP     1
  MXITER     1
  IMS6 'Pareto.ims' 'MODFLOW' 
END SOLUTIONGROUP

