ptf @
etf %
# DRN: Drain package file created on 2/23/2024 by ModelMuse version 5.1.1.56.
# (and then modified by a parameter estimation program.)
BEGIN OPTIONS
    AUXILIARY IFACE DDRN
    BOUNDNAMES
    PRINT_INPUT
    SAVE_FLOWS
    AUXDEPTHNAME DDRN
END OPTIONS

BEGIN DIMENSIONS
  MAXBOUND     6
END DIMENSIONS

BEGIN PERIOD      1
     1     1     3 -1.000000000000E+000  %                    @                    DRN_Par1@ * 53.9426523297489%      0  0.000000000000E+000  'Object10'  # Data Set 6: Layer Row Column Elevation Cond IFACE DDRN boundname
     1     1     4 -1.000000000000E+000  %                    @                    DRN_Par1@ * 200%      0  0.000000000000E+000  'Object10'  # Data Set 6: Layer Row Column Elevation Cond IFACE DDRN boundname
     1     1     5 -1.000000000000E+000  %                    @                    DRN_Par1@ * 200%      0  0.000000000000E+000  'Object10'  # Data Set 6: Layer Row Column Elevation Cond IFACE DDRN boundname
     1     1     6 -1.000000000000E+000  %                    @                    DRN_Par1@ * 83.6917562724016%      0  0.000000000000E+000  'Object10'  # Data Set 6: Layer Row Column Elevation Cond IFACE DDRN boundname
     1     9     7 -1.000000000000E+000  %                    @                    DRN_Par1@ * 2%      0  0.000000000000E+000  'Object12'  # Data Set 6: Layer Row Column Elevation Cond IFACE DDRN boundname
     1     9     3 -1.000000000000E+000  %                    @                    DRN_Par2@ * 3%      0  0.000000000000E+000  'Object11'  # Data Set 6: Layer Row Column Elevation Cond IFACE DDRN boundname
END PERIOD 

BEGIN PERIOD      2
     1     1     3 -1.000000000000E+000  %                    @                    DRN_Par1@ * 53.9426523297489%      0  0.000000000000E+000  'Object10'  # Data Set 6: Layer Row Column Elevation Cond IFACE DDRN boundname
     1     1     4 -1.000000000000E+000  %                    @                    DRN_Par1@ * 200%      0  0.000000000000E+000  'Object10'  # Data Set 6: Layer Row Column Elevation Cond IFACE DDRN boundname
     1     1     5 -1.000000000000E+000  %                    @                    DRN_Par1@ * 200%      0  0.000000000000E+000  'Object10'  # Data Set 6: Layer Row Column Elevation Cond IFACE DDRN boundname
     1     1     6 -1.000000000000E+000  %                    @                    DRN_Par1@ * 83.6917562724016%      0  0.000000000000E+000  'Object10'  # Data Set 6: Layer Row Column Elevation Cond IFACE DDRN boundname
END PERIOD 

