# Output Control file created on 8/15/2021 by ModelMuse version 4.3.0.58.
BEGIN OPTIONS
  BUDGET FILEOUT 'Pareto.cbc'
  HEAD FILEOUT 'Pareto.bhd'
END OPTIONS

BEGIN PERIOD      1
  SAVE HEAD ALL
  PRINT BUDGET ALL
  SAVE BUDGET ALL
END PERIOD 

BEGIN PERIOD      2
  SAVE HEAD ALL
  PRINT BUDGET ALL
  SAVE BUDGET ALL
END PERIOD 

