# CHD: Time-Variant Specified-Head package file created on 7/2/2021 by ModelMuse version 4.3.0.56.
BEGIN OPTIONS
    AUXILIARY IFACE
    BOUNDNAMES
    PRINT_INPUT
    SAVE_FLOWS
END OPTIONS

BEGIN DIMENSIONS
  MAXBOUND     1
END DIMENSIONS

BEGIN PERIOD      1
     1     1     1  1.000000000000E+000      0 'Specified_Head'  # Data Set 6: Layer Row Column Shead IFACE boundname
END PERIOD 

