# Name File for MODFLOW created on 7/2/2021 by ModelMuse Version 4.3.0.56
BEGIN OPTIONS
  LIST PestPilotPointTest.lst
  PRINT_INPUT
  SAVE_FLOWS
END OPTIONS

BEGIN PACKAGES
  DIS6         PestPilotPointTest.dis
  IC6          PestPilotPointTest.ic
  NPF6         PestPilotPointTest.npf
  OBS6         PestPilotPointTest.ob_gw
  OC6          PestPilotPointTest.oc
  CHD6         PestPilotPointTest.chd
  DRN6         PestPilotPointTest.drn
END PACKAGES
