pcf
* control data
restart estimation # RSTFLE PESTMODE
   315     5     2  1303    22     1 # NPAR NOBS NPARGP, NPRIOR NOBSGP, MAXCOMPRDIM
    15     1 double nopoint noobsreref # NTPLFLE, NINSFLE, PRECIS, DPOINT, OBSREREF
  1.000000000000E+001  -3.000000000000E+000   3.000000000000E-001   1.000000000000E-002     10     0 lamforgive derforgive # RLAMBDA1, RLAMFAC, PHIRATSUF, PHIREDLAM, NUMLAM, JACUPDATE, LAMFORGIVE, DERFORGIVE
  3.000000000000E+000   3.000000000000E+000   1.000000000000E-003      0     1 # RELPARMAX, FACPARMAX, FACORIG, IBOUNDSTICK, UPVECBEND
  1.000000000000E-001      1  1.000000000000E-001  noaui nosenreuse boundscale # PHIREDSWH, NOPTSWITCH, SPLITSWH, DOAUI, DOSENREUSE, BOUNDSCALE
    50  5.000000000000E-003      4     4  5.000000000000E-003      4  0.000000000000E+000      1  0.000000000000E+000  # NOPTMAX, PHIREDSTP, NPHISTP, NPHINORED, RELPARSTP, NRELPAR, PHISTOPTHRESH, LASTRUN, PHIABANDON
     1     1     1     0 jcosave nojcosaveitn verboserec reisaveitn parsaveitn noparsaverun # ICOV, ICOR, IEIG, IRES, JCOSAVE, JCOSAVEITN, VERBOSEREC, RESSAVEITN, PARSAVEITN, PARSAVERUN

* singular value decomposition
     1 # SVDMODE
  1000  5.000000000000E-007  # MAXSING, EIGTHRESH
     0 # EIGWRITE

* lsqr
     0 # LSQRMODE
  1.000000000000E-004   1.000000000000E-004   1.000000000000E+003   1260 # LSQR_ATOL LSQR_BTOL LSQR_CONLIM LSQR_ITNLIM
     1 # LSQRWRITE

* parameter groups
Drains relative  1.000000000000E-002   1.000000000000E-001  switch  1.000000000000E-001  parabolic
K relative  1.000000000000E-002   1.000000000000E-001  switch  1.000000000000E-001  parabolic

* parameter data
Hk1 log factor  1.000000000000E-004   1.000000000000E-010   1.000000000000E+002  K  1.000000000000E+000   0.000000000000E+000 
Hk2 log factor  1.000000000000E-002   1.000000000000E-010   1.000000000000E+002  K  1.000000000000E+000   0.000000000000E+000 
# Parameters in the K1_ family are pilot point parameters related to Hk1 in layer      1 in data set Kx
K1_1 log factor  1.000000000000E-004   1.000000000000E-010   1.000000000000E+002  K  1.000000000000E+000   0.000000000000E+000 
K1_2 log factor  1.000000000000E-004   1.000000000000E-010   1.000000000000E+002  K  1.000000000000E+000   0.000000000000E+000 
K1_3 log factor  1.000000000000E-004   1.000000000000E-010   1.000000000000E+002  K  1.000000000000E+000   0.000000000000E+000 
K1_4 log factor  1.000000000000E-004   1.000000000000E-010   1.000000000000E+002  K  1.000000000000E+000   0.000000000000E+000 
K1_5 log factor  1.000000000000E-004   1.000000000000E-010   1.000000000000E+002  K  1.000000000000E+000   0.000000000000E+000 
K1_6 log factor  1.000000000000E-004   1.000000000000E-010   1.000000000000E+002  K  1.000000000000E+000   0.000000000000E+000 
K1_7 log factor  1.000000000000E-004   1.000000000000E-010   1.000000000000E+002  K  1.000000000000E+000   0.000000000000E+000 
K1_8 log factor  1.000000000000E-004   1.000000000000E-010   1.000000000000E+002  K  1.000000000000E+000   0.000000000000E+000 
K1_9 log factor  1.000000000000E-004   1.000000000000E-010   1.000000000000E+002  K  1.000000000000E+000   0.000000000000E+000 
K1_10 log factor  1.000000000000E-004   1.000000000000E-010   1.000000000000E+002  K  1.000000000000E+000   0.000000000000E+000 
K1_11 log factor  1.000000000000E-004   1.000000000000E-010   1.000000000000E+002  K  1.000000000000E+000   0.000000000000E+000 
K1_12 log factor  1.000000000000E-004   1.000000000000E-010   1.000000000000E+002  K  1.000000000000E+000   0.000000000000E+000 
K1_13 log factor  1.000000000000E-004   1.000000000000E-010   1.000000000000E+002  K  1.000000000000E+000   0.000000000000E+000 
K1_14 log factor  1.000000000000E-004   1.000000000000E-010   1.000000000000E+002  K  1.000000000000E+000   0.000000000000E+000 
K1_15 log factor  1.000000000000E-004   1.000000000000E-010   1.000000000000E+002  K  1.000000000000E+000   0.000000000000E+000 
K1_16 log factor  1.000000000000E-004   1.000000000000E-010   1.000000000000E+002  K  1.000000000000E+000   0.000000000000E+000 
K1_17 log factor  1.000000000000E-004   1.000000000000E-010   1.000000000000E+002  K  1.000000000000E+000   0.000000000000E+000 
K1_18 log factor  1.000000000000E-004   1.000000000000E-010   1.000000000000E+002  K  1.000000000000E+000   0.000000000000E+000 
K1_19 log factor  1.000000000000E-004   1.000000000000E-010   1.000000000000E+002  K  1.000000000000E+000   0.000000000000E+000 
K1_20 log factor  1.000000000000E-004   1.000000000000E-010   1.000000000000E+002  K  1.000000000000E+000   0.000000000000E+000 
K1_21 log factor  1.000000000000E-004   1.000000000000E-010   1.000000000000E+002  K  1.000000000000E+000   0.000000000000E+000 
K1_22 log factor  1.000000000000E-004   1.000000000000E-010   1.000000000000E+002  K  1.000000000000E+000   0.000000000000E+000 
K1_23 log factor  1.000000000000E-004   1.000000000000E-010   1.000000000000E+002  K  1.000000000000E+000   0.000000000000E+000 
K1_24 log factor  1.000000000000E-004   1.000000000000E-010   1.000000000000E+002  K  1.000000000000E+000   0.000000000000E+000 
K1_25 log factor  1.000000000000E-004   1.000000000000E-010   1.000000000000E+002  K  1.000000000000E+000   0.000000000000E+000 
K1_26 log factor  1.000000000000E-004   1.000000000000E-010   1.000000000000E+002  K  1.000000000000E+000   0.000000000000E+000 
# Parameters in the K2_ family are pilot point parameters related to Hk2 in layer      1 in data set Kx
K2_1 log factor  1.000000000000E-002   1.000000000000E-010   1.000000000000E+002  K  1.000000000000E+000   0.000000000000E+000 
K2_2 log factor  1.000000000000E-002   1.000000000000E-010   1.000000000000E+002  K  1.000000000000E+000   0.000000000000E+000 
K2_3 log factor  1.000000000000E-002   1.000000000000E-010   1.000000000000E+002  K  1.000000000000E+000   0.000000000000E+000 
K2_4 log factor  1.000000000000E-002   1.000000000000E-010   1.000000000000E+002  K  1.000000000000E+000   0.000000000000E+000 
K2_5 log factor  1.000000000000E-002   1.000000000000E-010   1.000000000000E+002  K  1.000000000000E+000   0.000000000000E+000 
K2_6 log factor  1.000000000000E-002   1.000000000000E-010   1.000000000000E+002  K  1.000000000000E+000   0.000000000000E+000 
K2_7 log factor  1.000000000000E-002   1.000000000000E-010   1.000000000000E+002  K  1.000000000000E+000   0.000000000000E+000 
K2_8 log factor  1.000000000000E-002   1.000000000000E-010   1.000000000000E+002  K  1.000000000000E+000   0.000000000000E+000 
K2_9 log factor  1.000000000000E-002   1.000000000000E-010   1.000000000000E+002  K  1.000000000000E+000   0.000000000000E+000 
K2_10 log factor  1.000000000000E-002   1.000000000000E-010   1.000000000000E+002  K  1.000000000000E+000   0.000000000000E+000 
K2_11 log factor  1.000000000000E-002   1.000000000000E-010   1.000000000000E+002  K  1.000000000000E+000   0.000000000000E+000 
K2_12 log factor  1.000000000000E-002   1.000000000000E-010   1.000000000000E+002  K  1.000000000000E+000   0.000000000000E+000 
K2_13 log factor  1.000000000000E-002   1.000000000000E-010   1.000000000000E+002  K  1.000000000000E+000   0.000000000000E+000 
K2_14 log factor  1.000000000000E-002   1.000000000000E-010   1.000000000000E+002  K  1.000000000000E+000   0.000000000000E+000 
K2_15 log factor  1.000000000000E-002   1.000000000000E-010   1.000000000000E+002  K  1.000000000000E+000   0.000000000000E+000 
K2_16 log factor  1.000000000000E-002   1.000000000000E-010   1.000000000000E+002  K  1.000000000000E+000   0.000000000000E+000 
K2_17 log factor  1.000000000000E-002   1.000000000000E-010   1.000000000000E+002  K  1.000000000000E+000   0.000000000000E+000 
K2_18 log factor  1.000000000000E-002   1.000000000000E-010   1.000000000000E+002  K  1.000000000000E+000   0.000000000000E+000 
K2_19 log factor  1.000000000000E-002   1.000000000000E-010   1.000000000000E+002  K  1.000000000000E+000   0.000000000000E+000 
K2_20 log factor  1.000000000000E-002   1.000000000000E-010   1.000000000000E+002  K  1.000000000000E+000   0.000000000000E+000 
K2_21 log factor  1.000000000000E-002   1.000000000000E-010   1.000000000000E+002  K  1.000000000000E+000   0.000000000000E+000 
K2_22 log factor  1.000000000000E-002   1.000000000000E-010   1.000000000000E+002  K  1.000000000000E+000   0.000000000000E+000 
K2_23 log factor  1.000000000000E-002   1.000000000000E-010   1.000000000000E+002  K  1.000000000000E+000   0.000000000000E+000 
K2_24 log factor  1.000000000000E-002   1.000000000000E-010   1.000000000000E+002  K  1.000000000000E+000   0.000000000000E+000 
K2_25 log factor  1.000000000000E-002   1.000000000000E-010   1.000000000000E+002  K  1.000000000000E+000   0.000000000000E+000 
K2_26 log factor  1.000000000000E-002   1.000000000000E-010   1.000000000000E+002  K  1.000000000000E+000   0.000000000000E+000 
# Parameters in the K3_ family are pilot point parameters related to Hk1 in layer      2 in data set Kx
K3_1 log factor  1.000000000000E-004   1.000000000000E-010   1.000000000000E+002  K  1.000000000000E+000   0.000000000000E+000 
K3_2 log factor  1.000000000000E-004   1.000000000000E-010   1.000000000000E+002  K  1.000000000000E+000   0.000000000000E+000 
K3_3 log factor  1.000000000000E-004   1.000000000000E-010   1.000000000000E+002  K  1.000000000000E+000   0.000000000000E+000 
K3_4 log factor  1.000000000000E-004   1.000000000000E-010   1.000000000000E+002  K  1.000000000000E+000   0.000000000000E+000 
K3_5 log factor  1.000000000000E-004   1.000000000000E-010   1.000000000000E+002  K  1.000000000000E+000   0.000000000000E+000 
K3_6 log factor  1.000000000000E-004   1.000000000000E-010   1.000000000000E+002  K  1.000000000000E+000   0.000000000000E+000 
K3_7 log factor  1.000000000000E-004   1.000000000000E-010   1.000000000000E+002  K  1.000000000000E+000   0.000000000000E+000 
K3_8 log factor  1.000000000000E-004   1.000000000000E-010   1.000000000000E+002  K  1.000000000000E+000   0.000000000000E+000 
K3_9 log factor  1.000000000000E-004   1.000000000000E-010   1.000000000000E+002  K  1.000000000000E+000   0.000000000000E+000 
K3_10 log factor  1.000000000000E-004   1.000000000000E-010   1.000000000000E+002  K  1.000000000000E+000   0.000000000000E+000 
K3_11 log factor  1.000000000000E-004   1.000000000000E-010   1.000000000000E+002  K  1.000000000000E+000   0.000000000000E+000 
K3_12 log factor  1.000000000000E-004   1.000000000000E-010   1.000000000000E+002  K  1.000000000000E+000   0.000000000000E+000 
K3_13 log factor  1.000000000000E-004   1.000000000000E-010   1.000000000000E+002  K  1.000000000000E+000   0.000000000000E+000 
K3_14 log factor  1.000000000000E-004   1.000000000000E-010   1.000000000000E+002  K  1.000000000000E+000   0.000000000000E+000 
K3_15 log factor  1.000000000000E-004   1.000000000000E-010   1.000000000000E+002  K  1.000000000000E+000   0.000000000000E+000 
K3_16 log factor  1.000000000000E-004   1.000000000000E-010   1.000000000000E+002  K  1.000000000000E+000   0.000000000000E+000 
K3_17 log factor  1.000000000000E-004   1.000000000000E-010   1.000000000000E+002  K  1.000000000000E+000   0.000000000000E+000 
K3_18 log factor  1.000000000000E-004   1.000000000000E-010   1.000000000000E+002  K  1.000000000000E+000   0.000000000000E+000 
K3_19 log factor  1.000000000000E-004   1.000000000000E-010   1.000000000000E+002  K  1.000000000000E+000   0.000000000000E+000 
K3_20 log factor  1.000000000000E-004   1.000000000000E-010   1.000000000000E+002  K  1.000000000000E+000   0.000000000000E+000 
K3_21 log factor  1.000000000000E-004   1.000000000000E-010   1.000000000000E+002  K  1.000000000000E+000   0.000000000000E+000 
K3_22 log factor  1.000000000000E-004   1.000000000000E-010   1.000000000000E+002  K  1.000000000000E+000   0.000000000000E+000 
K3_23 log factor  1.000000000000E-004   1.000000000000E-010   1.000000000000E+002  K  1.000000000000E+000   0.000000000000E+000 
K3_24 log factor  1.000000000000E-004   1.000000000000E-010   1.000000000000E+002  K  1.000000000000E+000   0.000000000000E+000 
K3_25 log factor  1.000000000000E-004   1.000000000000E-010   1.000000000000E+002  K  1.000000000000E+000   0.000000000000E+000 
K3_26 log factor  1.000000000000E-004   1.000000000000E-010   1.000000000000E+002  K  1.000000000000E+000   0.000000000000E+000 
# Parameters in the K4_ family are pilot point parameters related to Hk2 in layer      2 in data set Kx
K4_1 log factor  1.000000000000E-002   1.000000000000E-010   1.000000000000E+002  K  1.000000000000E+000   0.000000000000E+000 
K4_2 log factor  1.000000000000E-002   1.000000000000E-010   1.000000000000E+002  K  1.000000000000E+000   0.000000000000E+000 
K4_3 log factor  1.000000000000E-002   1.000000000000E-010   1.000000000000E+002  K  1.000000000000E+000   0.000000000000E+000 
K4_4 log factor  1.000000000000E-002   1.000000000000E-010   1.000000000000E+002  K  1.000000000000E+000   0.000000000000E+000 
K4_5 log factor  1.000000000000E-002   1.000000000000E-010   1.000000000000E+002  K  1.000000000000E+000   0.000000000000E+000 
K4_6 log factor  1.000000000000E-002   1.000000000000E-010   1.000000000000E+002  K  1.000000000000E+000   0.000000000000E+000 
K4_7 log factor  1.000000000000E-002   1.000000000000E-010   1.000000000000E+002  K  1.000000000000E+000   0.000000000000E+000 
K4_8 log factor  1.000000000000E-002   1.000000000000E-010   1.000000000000E+002  K  1.000000000000E+000   0.000000000000E+000 
K4_9 log factor  1.000000000000E-002   1.000000000000E-010   1.000000000000E+002  K  1.000000000000E+000   0.000000000000E+000 
K4_10 log factor  1.000000000000E-002   1.000000000000E-010   1.000000000000E+002  K  1.000000000000E+000   0.000000000000E+000 
K4_11 log factor  1.000000000000E-002   1.000000000000E-010   1.000000000000E+002  K  1.000000000000E+000   0.000000000000E+000 
K4_12 log factor  1.000000000000E-002   1.000000000000E-010   1.000000000000E+002  K  1.000000000000E+000   0.000000000000E+000 
K4_13 log factor  1.000000000000E-002   1.000000000000E-010   1.000000000000E+002  K  1.000000000000E+000   0.000000000000E+000 
K4_14 log factor  1.000000000000E-002   1.000000000000E-010   1.000000000000E+002  K  1.000000000000E+000   0.000000000000E+000 
K4_15 log factor  1.000000000000E-002   1.000000000000E-010   1.000000000000E+002  K  1.000000000000E+000   0.000000000000E+000 
K4_16 log factor  1.000000000000E-002   1.000000000000E-010   1.000000000000E+002  K  1.000000000000E+000   0.000000000000E+000 
K4_17 log factor  1.000000000000E-002   1.000000000000E-010   1.000000000000E+002  K  1.000000000000E+000   0.000000000000E+000 
K4_18 log factor  1.000000000000E-002   1.000000000000E-010   1.000000000000E+002  K  1.000000000000E+000   0.000000000000E+000 
K4_19 log factor  1.000000000000E-002   1.000000000000E-010   1.000000000000E+002  K  1.000000000000E+000   0.000000000000E+000 
K4_20 log factor  1.000000000000E-002   1.000000000000E-010   1.000000000000E+002  K  1.000000000000E+000   0.000000000000E+000 
K4_21 log factor  1.000000000000E-002   1.000000000000E-010   1.000000000000E+002  K  1.000000000000E+000   0.000000000000E+000 
K4_22 log factor  1.000000000000E-002   1.000000000000E-010   1.000000000000E+002  K  1.000000000000E+000   0.000000000000E+000 
K4_23 log factor  1.000000000000E-002   1.000000000000E-010   1.000000000000E+002  K  1.000000000000E+000   0.000000000000E+000 
K4_24 log factor  1.000000000000E-002   1.000000000000E-010   1.000000000000E+002  K  1.000000000000E+000   0.000000000000E+000 
K4_25 log factor  1.000000000000E-002   1.000000000000E-010   1.000000000000E+002  K  1.000000000000E+000   0.000000000000E+000 
K4_26 log factor  1.000000000000E-002   1.000000000000E-010   1.000000000000E+002  K  1.000000000000E+000   0.000000000000E+000 
# Parameters in the K5_ family are pilot point parameters related to Hk1 in layer      3 in data set Kx
K5_1 log factor  1.000000000000E-004   1.000000000000E-010   1.000000000000E+002  K  1.000000000000E+000   0.000000000000E+000 
K5_2 log factor  1.000000000000E-004   1.000000000000E-010   1.000000000000E+002  K  1.000000000000E+000   0.000000000000E+000 
K5_3 log factor  1.000000000000E-004   1.000000000000E-010   1.000000000000E+002  K  1.000000000000E+000   0.000000000000E+000 
K5_4 log factor  1.000000000000E-004   1.000000000000E-010   1.000000000000E+002  K  1.000000000000E+000   0.000000000000E+000 
K5_5 log factor  1.000000000000E-004   1.000000000000E-010   1.000000000000E+002  K  1.000000000000E+000   0.000000000000E+000 
K5_6 log factor  1.000000000000E-004   1.000000000000E-010   1.000000000000E+002  K  1.000000000000E+000   0.000000000000E+000 
K5_7 log factor  1.000000000000E-004   1.000000000000E-010   1.000000000000E+002  K  1.000000000000E+000   0.000000000000E+000 
K5_8 log factor  1.000000000000E-004   1.000000000000E-010   1.000000000000E+002  K  1.000000000000E+000   0.000000000000E+000 
K5_9 log factor  1.000000000000E-004   1.000000000000E-010   1.000000000000E+002  K  1.000000000000E+000   0.000000000000E+000 
K5_10 log factor  1.000000000000E-004   1.000000000000E-010   1.000000000000E+002  K  1.000000000000E+000   0.000000000000E+000 
K5_11 log factor  1.000000000000E-004   1.000000000000E-010   1.000000000000E+002  K  1.000000000000E+000   0.000000000000E+000 
K5_12 log factor  1.000000000000E-004   1.000000000000E-010   1.000000000000E+002  K  1.000000000000E+000   0.000000000000E+000 
K5_13 log factor  1.000000000000E-004   1.000000000000E-010   1.000000000000E+002  K  1.000000000000E+000   0.000000000000E+000 
K5_14 log factor  1.000000000000E-004   1.000000000000E-010   1.000000000000E+002  K  1.000000000000E+000   0.000000000000E+000 
K5_15 log factor  1.000000000000E-004   1.000000000000E-010   1.000000000000E+002  K  1.000000000000E+000   0.000000000000E+000 
K5_16 log factor  1.000000000000E-004   1.000000000000E-010   1.000000000000E+002  K  1.000000000000E+000   0.000000000000E+000 
K5_17 log factor  1.000000000000E-004   1.000000000000E-010   1.000000000000E+002  K  1.000000000000E+000   0.000000000000E+000 
K5_18 log factor  1.000000000000E-004   1.000000000000E-010   1.000000000000E+002  K  1.000000000000E+000   0.000000000000E+000 
K5_19 log factor  1.000000000000E-004   1.000000000000E-010   1.000000000000E+002  K  1.000000000000E+000   0.000000000000E+000 
K5_20 log factor  1.000000000000E-004   1.000000000000E-010   1.000000000000E+002  K  1.000000000000E+000   0.000000000000E+000 
K5_21 log factor  1.000000000000E-004   1.000000000000E-010   1.000000000000E+002  K  1.000000000000E+000   0.000000000000E+000 
K5_22 log factor  1.000000000000E-004   1.000000000000E-010   1.000000000000E+002  K  1.000000000000E+000   0.000000000000E+000 
K5_23 log factor  1.000000000000E-004   1.000000000000E-010   1.000000000000E+002  K  1.000000000000E+000   0.000000000000E+000 
K5_24 log factor  1.000000000000E-004   1.000000000000E-010   1.000000000000E+002  K  1.000000000000E+000   0.000000000000E+000 
K5_25 log factor  1.000000000000E-004   1.000000000000E-010   1.000000000000E+002  K  1.000000000000E+000   0.000000000000E+000 
K5_26 log factor  1.000000000000E-004   1.000000000000E-010   1.000000000000E+002  K  1.000000000000E+000   0.000000000000E+000 
# Parameters in the K6_ family are pilot point parameters related to Hk2 in layer      3 in data set Kx
K6_1 log factor  1.000000000000E-002   1.000000000000E-010   1.000000000000E+002  K  1.000000000000E+000   0.000000000000E+000 
K6_2 log factor  1.000000000000E-002   1.000000000000E-010   1.000000000000E+002  K  1.000000000000E+000   0.000000000000E+000 
K6_3 log factor  1.000000000000E-002   1.000000000000E-010   1.000000000000E+002  K  1.000000000000E+000   0.000000000000E+000 
K6_4 log factor  1.000000000000E-002   1.000000000000E-010   1.000000000000E+002  K  1.000000000000E+000   0.000000000000E+000 
K6_5 log factor  1.000000000000E-002   1.000000000000E-010   1.000000000000E+002  K  1.000000000000E+000   0.000000000000E+000 
K6_6 log factor  1.000000000000E-002   1.000000000000E-010   1.000000000000E+002  K  1.000000000000E+000   0.000000000000E+000 
K6_7 log factor  1.000000000000E-002   1.000000000000E-010   1.000000000000E+002  K  1.000000000000E+000   0.000000000000E+000 
K6_8 log factor  1.000000000000E-002   1.000000000000E-010   1.000000000000E+002  K  1.000000000000E+000   0.000000000000E+000 
K6_9 log factor  1.000000000000E-002   1.000000000000E-010   1.000000000000E+002  K  1.000000000000E+000   0.000000000000E+000 
K6_10 log factor  1.000000000000E-002   1.000000000000E-010   1.000000000000E+002  K  1.000000000000E+000   0.000000000000E+000 
K6_11 log factor  1.000000000000E-002   1.000000000000E-010   1.000000000000E+002  K  1.000000000000E+000   0.000000000000E+000 
K6_12 log factor  1.000000000000E-002   1.000000000000E-010   1.000000000000E+002  K  1.000000000000E+000   0.000000000000E+000 
K6_13 log factor  1.000000000000E-002   1.000000000000E-010   1.000000000000E+002  K  1.000000000000E+000   0.000000000000E+000 
K6_14 log factor  1.000000000000E-002   1.000000000000E-010   1.000000000000E+002  K  1.000000000000E+000   0.000000000000E+000 
K6_15 log factor  1.000000000000E-002   1.000000000000E-010   1.000000000000E+002  K  1.000000000000E+000   0.000000000000E+000 
K6_16 log factor  1.000000000000E-002   1.000000000000E-010   1.000000000000E+002  K  1.000000000000E+000   0.000000000000E+000 
K6_17 log factor  1.000000000000E-002   1.000000000000E-010   1.000000000000E+002  K  1.000000000000E+000   0.000000000000E+000 
K6_18 log factor  1.000000000000E-002   1.000000000000E-010   1.000000000000E+002  K  1.000000000000E+000   0.000000000000E+000 
K6_19 log factor  1.000000000000E-002   1.000000000000E-010   1.000000000000E+002  K  1.000000000000E+000   0.000000000000E+000 
K6_20 log factor  1.000000000000E-002   1.000000000000E-010   1.000000000000E+002  K  1.000000000000E+000   0.000000000000E+000 
K6_21 log factor  1.000000000000E-002   1.000000000000E-010   1.000000000000E+002  K  1.000000000000E+000   0.000000000000E+000 
K6_22 log factor  1.000000000000E-002   1.000000000000E-010   1.000000000000E+002  K  1.000000000000E+000   0.000000000000E+000 
K6_23 log factor  1.000000000000E-002   1.000000000000E-010   1.000000000000E+002  K  1.000000000000E+000   0.000000000000E+000 
K6_24 log factor  1.000000000000E-002   1.000000000000E-010   1.000000000000E+002  K  1.000000000000E+000   0.000000000000E+000 
K6_25 log factor  1.000000000000E-002   1.000000000000E-010   1.000000000000E+002  K  1.000000000000E+000   0.000000000000E+000 
K6_26 log factor  1.000000000000E-002   1.000000000000E-010   1.000000000000E+002  K  1.000000000000E+000   0.000000000000E+000 
# Parameters in the K227_ family are pilot point parameters related to Hk1 in layer      1 in data set Ky
K227_1 log factor  1.000000000000E-004   1.000000000000E-010   1.000000000000E+002  K  1.000000000000E+000   0.000000000000E+000 
K227_2 log factor  1.000000000000E-004   1.000000000000E-010   1.000000000000E+002  K  1.000000000000E+000   0.000000000000E+000 
K227_3 log factor  1.000000000000E-004   1.000000000000E-010   1.000000000000E+002  K  1.000000000000E+000   0.000000000000E+000 
K227_4 log factor  1.000000000000E-004   1.000000000000E-010   1.000000000000E+002  K  1.000000000000E+000   0.000000000000E+000 
K227_5 log factor  1.000000000000E-004   1.000000000000E-010   1.000000000000E+002  K  1.000000000000E+000   0.000000000000E+000 
K227_6 log factor  1.000000000000E-004   1.000000000000E-010   1.000000000000E+002  K  1.000000000000E+000   0.000000000000E+000 
K227_7 log factor  1.000000000000E-004   1.000000000000E-010   1.000000000000E+002  K  1.000000000000E+000   0.000000000000E+000 
K227_8 log factor  1.000000000000E-004   1.000000000000E-010   1.000000000000E+002  K  1.000000000000E+000   0.000000000000E+000 
K227_9 log factor  1.000000000000E-004   1.000000000000E-010   1.000000000000E+002  K  1.000000000000E+000   0.000000000000E+000 
K227_10 log factor  1.000000000000E-004   1.000000000000E-010   1.000000000000E+002  K  1.000000000000E+000   0.000000000000E+000 
K227_11 log factor  1.000000000000E-004   1.000000000000E-010   1.000000000000E+002  K  1.000000000000E+000   0.000000000000E+000 
K227_12 log factor  1.000000000000E-004   1.000000000000E-010   1.000000000000E+002  K  1.000000000000E+000   0.000000000000E+000 
K227_13 log factor  1.000000000000E-004   1.000000000000E-010   1.000000000000E+002  K  1.000000000000E+000   0.000000000000E+000 
K227_14 log factor  1.000000000000E-004   1.000000000000E-010   1.000000000000E+002  K  1.000000000000E+000   0.000000000000E+000 
K227_15 log factor  1.000000000000E-004   1.000000000000E-010   1.000000000000E+002  K  1.000000000000E+000   0.000000000000E+000 
K227_16 log factor  1.000000000000E-004   1.000000000000E-010   1.000000000000E+002  K  1.000000000000E+000   0.000000000000E+000 
K227_17 log factor  1.000000000000E-004   1.000000000000E-010   1.000000000000E+002  K  1.000000000000E+000   0.000000000000E+000 
K227_18 log factor  1.000000000000E-004   1.000000000000E-010   1.000000000000E+002  K  1.000000000000E+000   0.000000000000E+000 
K227_19 log factor  1.000000000000E-004   1.000000000000E-010   1.000000000000E+002  K  1.000000000000E+000   0.000000000000E+000 
K227_20 log factor  1.000000000000E-004   1.000000000000E-010   1.000000000000E+002  K  1.000000000000E+000   0.000000000000E+000 
K227_21 log factor  1.000000000000E-004   1.000000000000E-010   1.000000000000E+002  K  1.000000000000E+000   0.000000000000E+000 
K227_22 log factor  1.000000000000E-004   1.000000000000E-010   1.000000000000E+002  K  1.000000000000E+000   0.000000000000E+000 
K227_23 log factor  1.000000000000E-004   1.000000000000E-010   1.000000000000E+002  K  1.000000000000E+000   0.000000000000E+000 
K227_24 log factor  1.000000000000E-004   1.000000000000E-010   1.000000000000E+002  K  1.000000000000E+000   0.000000000000E+000 
K227_25 log factor  1.000000000000E-004   1.000000000000E-010   1.000000000000E+002  K  1.000000000000E+000   0.000000000000E+000 
K227_26 log factor  1.000000000000E-004   1.000000000000E-010   1.000000000000E+002  K  1.000000000000E+000   0.000000000000E+000 
# Parameters in the K228_ family are pilot point parameters related to Hk2 in layer      1 in data set Ky
K228_1 log factor  1.000000000000E-002   1.000000000000E-010   1.000000000000E+002  K  1.000000000000E+000   0.000000000000E+000 
K228_2 log factor  1.000000000000E-002   1.000000000000E-010   1.000000000000E+002  K  1.000000000000E+000   0.000000000000E+000 
K228_3 log factor  1.000000000000E-002   1.000000000000E-010   1.000000000000E+002  K  1.000000000000E+000   0.000000000000E+000 
K228_4 log factor  1.000000000000E-002   1.000000000000E-010   1.000000000000E+002  K  1.000000000000E+000   0.000000000000E+000 
K228_5 log factor  1.000000000000E-002   1.000000000000E-010   1.000000000000E+002  K  1.000000000000E+000   0.000000000000E+000 
K228_6 log factor  1.000000000000E-002   1.000000000000E-010   1.000000000000E+002  K  1.000000000000E+000   0.000000000000E+000 
K228_7 log factor  1.000000000000E-002   1.000000000000E-010   1.000000000000E+002  K  1.000000000000E+000   0.000000000000E+000 
K228_8 log factor  1.000000000000E-002   1.000000000000E-010   1.000000000000E+002  K  1.000000000000E+000   0.000000000000E+000 
K228_9 log factor  1.000000000000E-002   1.000000000000E-010   1.000000000000E+002  K  1.000000000000E+000   0.000000000000E+000 
K228_10 log factor  1.000000000000E-002   1.000000000000E-010   1.000000000000E+002  K  1.000000000000E+000   0.000000000000E+000 
K228_11 log factor  1.000000000000E-002   1.000000000000E-010   1.000000000000E+002  K  1.000000000000E+000   0.000000000000E+000 
K228_12 log factor  1.000000000000E-002   1.000000000000E-010   1.000000000000E+002  K  1.000000000000E+000   0.000000000000E+000 
K228_13 log factor  1.000000000000E-002   1.000000000000E-010   1.000000000000E+002  K  1.000000000000E+000   0.000000000000E+000 
K228_14 log factor  1.000000000000E-002   1.000000000000E-010   1.000000000000E+002  K  1.000000000000E+000   0.000000000000E+000 
K228_15 log factor  1.000000000000E-002   1.000000000000E-010   1.000000000000E+002  K  1.000000000000E+000   0.000000000000E+000 
K228_16 log factor  1.000000000000E-002   1.000000000000E-010   1.000000000000E+002  K  1.000000000000E+000   0.000000000000E+000 
K228_17 log factor  1.000000000000E-002   1.000000000000E-010   1.000000000000E+002  K  1.000000000000E+000   0.000000000000E+000 
K228_18 log factor  1.000000000000E-002   1.000000000000E-010   1.000000000000E+002  K  1.000000000000E+000   0.000000000000E+000 
K228_19 log factor  1.000000000000E-002   1.000000000000E-010   1.000000000000E+002  K  1.000000000000E+000   0.000000000000E+000 
K228_20 log factor  1.000000000000E-002   1.000000000000E-010   1.000000000000E+002  K  1.000000000000E+000   0.000000000000E+000 
K228_21 log factor  1.000000000000E-002   1.000000000000E-010   1.000000000000E+002  K  1.000000000000E+000   0.000000000000E+000 
K228_22 log factor  1.000000000000E-002   1.000000000000E-010   1.000000000000E+002  K  1.000000000000E+000   0.000000000000E+000 
K228_23 log factor  1.000000000000E-002   1.000000000000E-010   1.000000000000E+002  K  1.000000000000E+000   0.000000000000E+000 
K228_24 log factor  1.000000000000E-002   1.000000000000E-010   1.000000000000E+002  K  1.000000000000E+000   0.000000000000E+000 
K228_25 log factor  1.000000000000E-002   1.000000000000E-010   1.000000000000E+002  K  1.000000000000E+000   0.000000000000E+000 
K228_26 log factor  1.000000000000E-002   1.000000000000E-010   1.000000000000E+002  K  1.000000000000E+000   0.000000000000E+000 
# Parameters in the K229_ family are pilot point parameters related to Hk1 in layer      2 in data set Ky
K229_1 log factor  1.000000000000E-004   1.000000000000E-010   1.000000000000E+002  K  1.000000000000E+000   0.000000000000E+000 
K229_2 log factor  1.000000000000E-004   1.000000000000E-010   1.000000000000E+002  K  1.000000000000E+000   0.000000000000E+000 