pcf
* control data
restart estimation # RSTFLE PESTMODE
   315     5     2   523     7     1 # NPAR NOBS NPARGP, NPRIOR NOBSGP, MAXCOMPRDIM
    15     1 double nopoint noobsreref # NTPLFLE, NINSFLE, PRECIS, DPOINT, OBSREREF
  1.000000000000E+001  -3.000000000000E+000   3.000000000000E-001   1.000000000000E-002     10     0 lamforgive derforgive # RLAMBDA1, RLAMFAC, PHIRATSUF, PHIREDLAM, NUMLAM, JACUPDATE, LAMFORGIVE, DERFORGIVE
  3.000000000000E+000   3.000000000000E+000   1.000000000000E-003      0     1 # RELPARMAX, FACPARMAX, FACORIG, IBOUNDSTICK, UPVECBEND
  1.000000000000E-001      1  1.000000000000E-001  noaui nosenreuse boundscale # PHIREDSWH, NOPTSWITCH, SPLITSWH, DOAUI, DOSENREUSE, BOUNDSCALE
    50  5.000000000000E-003      4     4  5.000000000000E-003      4  0.000000000000E+000      1  0.000000000000E+000  # NOPTMAX, PHIREDSTP, NPHISTP, NPHINORED, RELPARSTP, NRELPAR, PHISTOPTHRESH, LASTRUN, PHIABANDON
     1     1     1     0 jcosave nojcosaveitn verboserec reisaveitn parsaveitn noparsaverun # ICOV, ICOR, IEIG, IRES, JCOSAVE, JCOSAVEITN, VERBOSEREC, RESSAVEITN, PARSAVEITN, PARSAVERUN

* singular value decomposition
     1 # SVDMODE
  1000  5.000000000000E-007  # MAXSING, EIGTHRESH
     0 # EIGWRITE

* lsqr
     0 # LSQRMODE
  1.000000000000E-004   1.000000000000E-004   1.000000000000E+003   1260 # LSQR_ATOL LSQR_BTOL LSQR_CONLIM LSQR_ITNLIM
     1 # LSQRWRITE

* parameter groups
Drains relative  1.000000000000E-002   1.000000000000E-001  switch  1.000000000000E-001  parabolic
K relative  1.000000000000E-002   1.000000000000E-001  switch  1.000000000000E-001  parabolic

* parameter data
Hk1 log factor  1.000000000000E-004   1.000000000000E-010   1.000000000000E+002  K  1.000000000000E+000   0.000000000000E+000 
Hk2 log factor  1.000000000000E-002   1.000000000000E-010   1.000000000000E+002  K  1.000000000000E+000   0.000000000000E+000 
Fam1_1 log factor  1.000000000000E-004   1.000000000000E-010   1.000000000000E+002  K  1.000000000000E+000   0.000000000000E+000  # Parameters in the Fam1_ family are pilot point parameters related to Hk1 in layer      1 in data set Kx
Fam1_2 log factor  1.000000000000E-004   1.000000000000E-010   1.000000000000E+002  K  1.000000000000E+000   0.000000000000E+000 
Fam1_3 log factor  1.000000000000E-004   1.000000000000E-010   1.000000000000E+002  K  1.000000000000E+000   0.000000000000E+000 
Fam1_4 log factor  1.000000000000E-004   1.000000000000E-010   1.000000000000E+002  K  1.000000000000E+000   0.000000000000E+000 
Fam1_5 log factor  1.000000000000E-004   1.000000000000E-010   1.000000000000E+002  K  1.000000000000E+000   0.000000000000E+000 
Fam1_6 log factor  1.000000000000E-004   1.000000000000E-010   1.000000000000E+002  K  1.000000000000E+000   0.000000000000E+000 
Fam1_7 log factor  1.000000000000E-004   1.000000000000E-010   1.000000000000E+002  K  1.000000000000E+000   0.000000000000E+000 
Fam1_8 log factor  1.000000000000E-004   1.000000000000E-010   1.000000000000E+002  K  1.000000000000E+000   0.000000000000E+000 
Fam1_9 log factor  1.000000000000E-004   1.000000000000E-010   1.000000000000E+002  K  1.000000000000E+000   0.000000000000E+000 
Fam1_10 log factor  1.000000000000E-004   1.000000000000E-010   1.000000000000E+002  K  1.000000000000E+000   0.000000000000E+000 
Fam1_11 log factor  1.000000000000E-004   1.000000000000E-010   1.000000000000E+002  K  1.000000000000E+000   0.000000000000E+000 
Fam1_12 log factor  1.000000000000E-004   1.000000000000E-010   1.000000000000E+002  K  1.000000000000E+000   0.000000000000E+000 
Fam1_13 log factor  1.000000000000E-004   1.000000000000E-010   1.000000000000E+002  K  1.000000000000E+000   0.000000000000E+000 
Fam1_14 log factor  1.000000000000E-004   1.000000000000E-010   1.000000000000E+002  K  1.000000000000E+000   0.000000000000E+000 
Fam1_15 log factor  1.000000000000E-004   1.000000000000E-010   1.000000000000E+002  K  1.000000000000E+000   0.000000000000E+000 
Fam1_16 log factor  1.000000000000E-004   1.000000000000E-010   1.000000000000E+002  K  1.000000000000E+000   0.000000000000E+000 
Fam1_17 log factor  1.000000000000E-004   1.000000000000E-010   1.000000000000E+002  K  1.000000000000E+000   0.000000000000E+000 
Fam1_18 log factor  1.000000000000E-004   1.000000000000E-010   1.000000000000E+002  K  1.000000000000E+000   0.000000000000E+000 
Fam1_19 log factor  1.000000000000E-004   1.000000000000E-010   1.000000000000E+002  K  1.000000000000E+000   0.000000000000E+000 
Fam1_20 log factor  1.000000000000E-004   1.000000000000E-010   1.000000000000E+002  K  1.000000000000E+000   0.000000000000E+000 
Fam1_21 log factor  1.000000000000E-004   1.000000000000E-010   1.000000000000E+002  K  1.000000000000E+000   0.000000000000E+000 
Fam1_22 log factor  1.000000000000E-004   1.000000000000E-010   1.000000000000E+002  K  1.000000000000E+000   0.000000000000E+000 
Fam1_23 log factor  1.000000000000E-004   1.000000000000E-010   1.000000000000E+002  K  1.000000000000E+000   0.000000000000E+000 
Fam1_24 log factor  1.000000000000E-004   1.000000000000E-010   1.000000000000E+002  K  1.000000000000E+000   0.000000000000E+000 
Fam1_25 log factor  1.000000000000E-004   1.000000000000E-010   1.000000000000E+002  K  1.000000000000E+000   0.000000000000E+000 
Fam1_26 log factor  1.000000000000E-004   1.000000000000E-010   1.000000000000E+002  K  1.000000000000E+000   0.000000000000E+000 
Fam2_1 log factor  1.000000000000E-002   1.000000000000E-010   1.000000000000E+002  K  1.000000000000E+000   0.000000000000E+000  # Parameters in the Fam2_ family are pilot point parameters related to Hk2 in layer      1 in data set Kx
Fam2_2 log factor  1.000000000000E-002   1.000000000000E-010   1.000000000000E+002  K  1.000000000000E+000   0.000000000000E+000 
Fam2_3 log factor  1.000000000000E-002   1.000000000000E-010   1.000000000000E+002  K  1.000000000000E+000   0.000000000000E+000 
Fam2_4 log factor  1.000000000000E-002   1.000000000000E-010   1.000000000000E+002  K  1.000000000000E+000   0.000000000000E+000 
Fam2_5 log factor  1.000000000000E-002   1.000000000000E-010   1.000000000000E+002  K  1.000000000000E+000   0.000000000000E+000 
Fam2_6 log factor  1.000000000000E-002   1.000000000000E-010   1.000000000000E+002  K  1.000000000000E+000   0.000000000000E+000 
Fam2_7 log factor  1.000000000000E-002   1.000000000000E-010   1.000000000000E+002  K  1.000000000000E+000   0.000000000000E+000 
Fam2_8 log factor  1.000000000000E-002   1.000000000000E-010   1.000000000000E+002  K  1.000000000000E+000   0.000000000000E+000 
Fam2_9 log factor  1.000000000000E-002   1.000000000000E-010   1.000000000000E+002  K  1.000000000000E+000   0.000000000000E+000 
Fam2_10 log factor  1.000000000000E-002   1.000000000000E-010   1.000000000000E+002  K  1.000000000000E+000   0.000000000000E+000 
Fam2_11 log factor  1.000000000000E-002   1.000000000000E-010   1.000000000000E+002  K  1.000000000000E+000   0.000000000000E+000 
Fam2_12 log factor  1.000000000000E-002   1.000000000000E-010   1.000000000000E+002  K  1.000000000000E+000   0.000000000000E+000 
Fam2_13 log factor  1.000000000000E-002   1.000000000000E-010   1.000000000000E+002  K  1.000000000000E+000   0.000000000000E+000 
Fam2_14 log factor  1.000000000000E-002   1.000000000000E-010   1.000000000000E+002  K  1.000000000000E+000   0.000000000000E+000 
Fam2_15 log factor  1.000000000000E-002   1.000000000000E-010   1.000000000000E+002  K  1.000000000000E+000   0.000000000000E+000 
Fam2_16 log factor  1.000000000000E-002   1.000000000000E-010   1.000000000000E+002  K  1.000000000000E+000   0.000000000000E+000 
Fam2_17 log factor  1.000000000000E-002   1.000000000000E-010   1.000000000000E+002  K  1.000000000000E+000   0.000000000000E+000 
Fam2_18 log factor  1.000000000000E-002   1.000000000000E-010   1.000000000000E+002  K  1.000000000000E+000   0.000000000000E+000 
Fam2_19 log factor  1.000000000000E-002   1.000000000000E-010   1.000000000000E+002  K  1.000000000000E+000   0.000000000000E+000 
Fam2_20 log factor  1.000000000000E-002   1.000000000000E-010   1.000000000000E+002  K  1.000000000000E+000   0.000000000000E+000 
Fam2_21 log factor  1.000000000000E-002   1.000000000000E-010   1.000000000000E+002  K  1.000000000000E+000   0.000000000000E+000 
Fam2_22 log factor  1.000000000000E-002   1.000000000000E-010   1.000000000000E+002  K  1.000000000000E+000   0.000000000000E+000 
Fam2_23 log factor  1.000000000000E-002   1.000000000000E-010   1.000000000000E+002  K  1.000000000000E+000   0.000000000000E+000 
Fam2_24 log factor  1.000000000000E-002   1.000000000000E-010   1.000000000000E+002  K  1.000000000000E+000   0.000000000000E+000 
Fam2_25 log factor  1.000000000000E-002   1.000000000000E-010   1.000000000000E+002  K  1.000000000000E+000   0.000000000000E+000 
Fam2_26 log factor  1.000000000000E-002   1.000000000000E-010   1.000000000000E+002  K  1.000000000000E+000   0.000000000000E+000 
Fam3_1 log factor  1.000000000000E-004   1.000000000000E-010   1.000000000000E+002  K  1.000000000000E+000   0.000000000000E+000  # Parameters in the Fam3_ family are pilot point parameters related to Hk1 in layer      2 in data set Kx
Fam3_2 log factor  1.000000000000E-004   1.000000000000E-010   1.000000000000E+002  K  1.000000000000E+000   0.000000000000E+000 
Fam3_3 log factor  1.000000000000E-004   1.000000000000E-010   1.000000000000E+002  K  1.000000000000E+000   0.000000000000E+000 
Fam3_4 log factor  1.000000000000E-004   1.000000000000E-010   1.000000000000E+002  K  1.000000000000E+000   0.000000000000E+000 
Fam3_5 log factor  1.000000000000E-004   1.000000000000E-010   1.000000000000E+002  K  1.000000000000E+000   0.000000000000E+000 
Fam3_6 log factor  1.000000000000E-004   1.000000000000E-010   1.000000000000E+002  K  1.000000000000E+000   0.000000000000E+000 
Fam3_7 log factor  1.000000000000E-004   1.000000000000E-010   1.000000000000E+002  K  1.000000000000E+000   0.000000000000E+000 
Fam3_8 log factor  1.000000000000E-004   1.000000000000E-010   1.000000000000E+002  K  1.000000000000E+000   0.000000000000E+000 
Fam3_9 log factor  1.000000000000E-004   1.000000000000E-010   1.000000000000E+002  K  1.000000000000E+000   0.000000000000E+000 
Fam3_10 log factor  1.000000000000E-004   1.000000000000E-010   1.000000000000E+002  K  1.000000000000E+000   0.000000000000E+000 
Fam3_11 log factor  1.000000000000E-004   1.000000000000E-010   1.000000000000E+002  K  1.000000000000E+000   0.000000000000E+000 
Fam3_12 log factor  1.000000000000E-004   1.000000000000E-010   1.000000000000E+002  K  1.000000000000E+000   0.000000000000E+000 
Fam3_13 log factor  1.000000000000E-004   1.000000000000E-010   1.000000000000E+002  K  1.000000000000E+000   0.000000000000E+000 
Fam3_14 log factor  1.000000000000E-004   1.000000000000E-010   1.000000000000E+002  K  1.000000000000E+000   0.000000000000E+000 
Fam3_15 log factor  1.000000000000E-004   1.000000000000E-010   1.000000000000E+002  K  1.000000000000E+000   0.000000000000E+000 
Fam3_16 log factor  1.000000000000E-004   1.000000000000E-010   1.000000000000E+002  K  1.000000000000E+000   0.000000000000E+000 
Fam3_17 log factor  1.000000000000E-004   1.000000000000E-010   1.000000000000E+002  K  1.000000000000E+000   0.000000000000E+000 
Fam3_18 log factor  1.000000000000E-004   1.000000000000E-010   1.000000000000E+002  K  1.000000000000E+000   0.000000000000E+000 
Fam3_19 log factor  1.000000000000E-004   1.000000000000E-010   1.000000000000E+002  K  1.000000000000E+000   0.000000000000E+000 
Fam3_20 log factor  1.000000000000E-004   1.000000000000E-010   1.000000000000E+002  K  1.000000000000E+000   0.000000000000E+000 
Fam3_21 log factor  1.000000000000E-004   1.000000000000E-010   1.000000000000E+002  K  1.000000000000E+000   0.000000000000E+000 
Fam3_22 log factor  1.000000000000E-004   1.000000000000E-010   1.000000000000E+002  K  1.000000000000E+000   0.000000000000E+000 
Fam3_23 log factor  1.000000000000E-004   1.000000000000E-010   1.000000000000E+002  K  1.000000000000E+000   0.000000000000E+000 
Fam3_24 log factor  1.000000000000E-004   1.000000000000E-010   1.000000000000E+002  K  1.000000000000E+000   0.000000000000E+000 
Fam3_25 log factor  1.000000000000E-004   1.000000000000E-010   1.000000000000E+002  K  1.000000000000E+000   0.000000000000E+000 
Fam3_26 log factor  1.000000000000E-004   1.000000000000E-010   1.000000000000E+002  K  1.000000000000E+000   0.000000000000E+000 
Fam4_1 log factor  1.000000000000E-002   1.000000000000E-010   1.000000000000E+002  K  1.000000000000E+000   0.000000000000E+000  # Parameters in the Fam4_ family are pilot point parameters related to Hk2 in layer      2 in data set Kx
Fam4_2 log factor  1.000000000000E-002   1.000000000000E-010   1.000000000000E+002  K  1.000000000000E+000   0.000000000000E+000 
Fam4_3 log factor  1.000000000000E-002   1.000000000000E-010   1.000000000000E+002  K  1.000000000000E+000   0.000000000000E+000 
Fam4_4 log factor  1.000000000000E-002   1.000000000000E-010   1.000000000000E+002  K  1.000000000000E+000   0.000000000000E+000 
Fam4_5 log factor  1.000000000000E-002   1.000000000000E-010   1.000000000000E+002  K  1.000000000000E+000   0.000000000000E+000 
Fam4_6 log factor  1.000000000000E-002   1.000000000000E-010   1.000000000000E+002  K  1.000000000000E+000   0.000000000000E+000 
Fam4_7 log factor  1.000000000000E-002   1.000000000000E-010   1.000000000000E+002  K  1.000000000000E+000   0.000000000000E+000 
Fam4_8 log factor  1.000000000000E-002   1.000000000000E-010   1.000000000000E+002  K  1.000000000000E+000   0.000000000000E+000 
Fam4_9 log factor  1.000000000000E-002   1.000000000000E-010   1.000000000000E+002  K  1.000000000000E+000   0.000000000000E+000 
Fam4_10 log factor  1.000000000000E-002   1.000000000000E-010   1.000000000000E+002  K  1.000000000000E+000   0.000000000000E+000 
Fam4_11 log factor  1.000000000000E-002   1.000000000000E-010   1.000000000000E+002  K  1.000000000000E+000   0.000000000000E+000 
Fam4_12 log factor  1.000000000000E-002   1.000000000000E-010   1.000000000000E+002  K  1.000000000000E+000   0.000000000000E+000 
Fam4_13 log factor  1.000000000000E-002   1.000000000000E-010   1.000000000000E+002  K  1.000000000000E+000   0.000000000000E+000 
Fam4_14 log factor  1.000000000000E-002   1.000000000000E-010   1.000000000000E+002  K  1.000000000000E+000   0.000000000000E+000 
Fam4_15 log factor  1.000000000000E-002   1.000000000000E-010   1.000000000000E+002  K  1.000000000000E+000   0.000000000000E+000 
Fam4_16 log factor  1.000000000000E-002   1.000000000000E-010   1.000000000000E+002  K  1.000000000000E+000   0.000000000000E+000 
Fam4_17 log factor  1.000000000000E-002   1.000000000000E-010   1.000000000000E+002  K  1.000000000000E+000   0.000000000000E+000 
Fam4_18 log factor  1.000000000000E-002   1.000000000000E-010   1.000000000000E+002  K  1.000000000000E+000   0.000000000000E+000 
Fam4_19 log factor  1.000000000000E-002   1.000000000000E-010   1.000000000000E+002  K  1.000000000000E+000   0.000000000000E+000 
Fam4_20 log factor  1.000000000000E-002   1.000000000000E-010   1.000000000000E+002  K  1.000000000000E+000   0.000000000000E+000 
Fam4_21 log factor  1.000000000000E-002   1.000000000000E-010   1.000000000000E+002  K  1.000000000000E+000   0.000000000000E+000 
Fam4_22 log factor  1.000000000000E-002   1.000000000000E-010   1.000000000000E+002  K  1.000000000000E+000   0.000000000000E+000 
Fam4_23 log factor  1.000000000000E-002   1.000000000000E-010   1.000000000000E+002  K  1.000000000000E+000   0.000000000000E+000 
Fam4_24 log factor  1.000000000000E-002   1.000000000000E-010   1.000000000000E+002  K  1.000000000000E+000   0.000000000000E+000 
Fam4_25 log factor  1.000000000000E-002   1.000000000000E-010   1.000000000000E+002  K  1.000000000000E+000   0.000000000000E+000 
Fam4_26 log factor  1.000000000000E-002   1.000000000000E-010   1.000000000000E+002  K  1.000000000000E+000   0.000000000000E+000 
Fam5_1 log factor  1.000000000000E-004   1.000000000000E-010   1.000000000000E+002  K  1.000000000000E+000   0.000000000000E+000  # Parameters in the Fam5_ family are pilot point parameters related to Hk1 in layer      3 in data set Kx
Fam5_2 log factor  1.000000000000E-004   1.000000000000E-010   1.000000000000E+002  K  1.000000000000E+000   0.000000000000E+000 
Fam5_3 log factor  1.000000000000E-004   1.000000000000E-010   1.000000000000E+002  K  1.000000000000E+000   0.000000000000E+000 
Fam5_4 log factor  1.000000000000E-004   1.000000000000E-010   1.000000000000E+002  K  1.000000000000E+000   0.000000000000E+000 
Fam5_5 log factor  1.000000000000E-004   1.000000000000E-010   1.000000000000E+002  K  1.000000000000E+000   0.000000000000E+000 
Fam5_6 log factor  1.000000000000E-004   1.000000000000E-010   1.000000000000E+002  K  1.000000000000E+000   0.000000000000E+000 
Fam5_7 log factor  1.000000000000E-004   1.000000000000E-010   1.000000000000E+002  K  1.000000000000E+000   0.000000000000E+000 
Fam5_8 log factor  1.000000000000E-004   1.000000000000E-010   1.000000000000E+002  K  1.000000000000E+000   0.000000000000E+000 
Fam5_9 log factor  1.000000000000E-004   1.000000000000E-010   1.000000000000E+002  K  1.000000000000E+000   0.000000000000E+000 
Fam5_10 log factor  1.000000000000E-004   1.000000000000E-010   1.000000000000E+002  K  1.000000000000E+000   0.000000000000E+000 
Fam5_11 log factor  1.000000000000E-004   1.000000000000E-010   1.000000000000E+002  K  1.000000000000E+000   0.000000000000E+000 
Fam5_12 log factor  1.000000000000E-004   1.000000000000E-010   1.000000000000E+002  K  1.000000000000E+000   0.000000000000E+000 
Fam5_13 log factor  1.000000000000E-004   1.000000000000E-010   1.000000000000E+002  K  1.000000000000E+000   0.000000000000E+000 
Fam5_14 log factor  1.000000000000E-004   1.000000000000E-010   1.000000000000E+002  K  1.000000000000E+000   0.000000000000E+000 
Fam5_15 log factor  1.000000000000E-004   1.000000000000E-010   1.000000000000E+002  K  1.000000000000E+000   0.000000000000E+000 
Fam5_16 log factor  1.000000000000E-004   1.000000000000E-010   1.000000000000E+002  K  1.000000000000E+000   0.000000000000E+000 
Fam5_17 log factor  1.000000000000E-004   1.000000000000E-010   1.000000000000E+002  K  1.000000000000E+000   0.000000000000E+000 
Fam5_18 log factor  1.000000000000E-004   1.000000000000E-010   1.000000000000E+002  K  1.000000000000E+000   0.000000000000E+000 
Fam5_19 log factor  1.000000000000E-004   1.000000000000E-010   1.000000000000E+002  K  1.000000000000E+000   0.000000000000E+000 
Fam5_20 log factor  1.000000000000E-004   1.000000000000E-010   1.000000000000E+002  K  1.000000000000E+000   0.000000000000E+000 
Fam5_21 log factor  1.000000000000E-004   1.000000000000E-010   1.000000000000E+002  K  1.000000000000E+000   0.000000000000E+000 
Fam5_22 log factor  1.000000000000E-004   1.000000000000E-010   1.000000000000E+002  K  1.000000000000E+000   0.000000000000E+000 
Fam5_23 log factor  1.000000000000E-004   1.000000000000E-010   1.000000000000E+002  K  1.000000000000E+000   0.000000000000E+000 
Fam5_24 log factor  1.000000000000E-004   1.000000000000E-010   1.000000000000E+002  K  1.000000000000E+000   0.000000000000E+000 
Fam5_25 log factor  1.000000000000E-004   1.000000000000E-010   1.000000000000E+002  K  1.000000000000E+000   0.000000000000E+000 
Fam5_26 log factor  1.000000000000E-004   1.000000000000E-010   1.000000000000E+002  K  1.000000000000E+000   0.000000000000E+000 
Fam6_1 log factor  1.000000000000E-002   1.000000000000E-010   1.000000000000E+002  K  1.000000000000E+000   0.000000000000E+000  # Parameters in the Fam6_ family are pilot point parameters related to Hk2 in layer      3 in data set Kx
Fam6_2 log factor  1.000000000000E-002   1.000000000000E-010   1.000000000000E+002  K  1.000000000000E+000   0.000000000000E+000 
Fam6_3 log factor  1.000000000000E-002   1.000000000000E-010   1.000000000000E+002  K  1.000000000000E+000   0.000000000000E+000 
Fam6_4 log factor  1.000000000000E-002   1.000000000000E-010   1.000000000000E+002  K  1.000000000000E+000   0.000000000000E+000 
Fam6_5 log factor  1.000000000000E-002   1.000000000000E-010   1.000000000000E+002  K  1.000000000000E+000   0.000000000000E+000 
Fam6_6 log factor  1.000000000000E-002   1.000000000000E-010   1.000000000000E+002  K  1.000000000000E+000   0.000000000000E+000 
Fam6_7 log factor  1.000000000000E-002   1.000000000000E-010   1.000000000000E+002  K  1.000000000000E+000   0.000000000000E+000 
Fam6_8 log factor  1.000000000000E-002   1.000000000000E-010   1.000000000000E+002  K  1.000000000000E+000   0.000000000000E+000 
Fam6_9 log factor  1.000000000000E-002   1.000000000000E-010   1.000000000000E+002  K  1.000000000000E+000   0.000000000000E+000 
Fam6_10 log factor  1.000000000000E-002   1.000000000000E-010   1.000000000000E+002  K  1.000000000000E+000   0.000000000000E+000 
Fam6_11 log factor  1.000000000000E-002   1.000000000000E-010   1.000000000000E+002  K  1.000000000000E+000   0.000000000000E+000 
Fam6_12 log factor  1.000000000000E-002   1.000000000000E-010   1.000000000000E+002  K  1.000000000000E+000   0.000000000000E+000 
Fam6_13 log factor  1.000000000000E-002   1.000000000000E-010   1.000000000000E+002  K  1.000000000000E+000   0.000000000000E+000 
Fam6_14 log factor  1.000000000000E-002   1.000000000000E-010   1.000000000000E+002  K  1.000000000000E+000   0.000000000000E+000 
Fam6_15 log factor  1.000000000000E-002   1.000000000000E-010   1.000000000000E+002  K  1.000000000000E+000   0.000000000000E+000 
Fam6_16 log factor  1.000000000000E-002   1.000000000000E-010   1.000000000000E+002  K  1.000000000000E+000   0.000000000000E+000 
Fam6_17 log factor  1.000000000000E-002   1.000000000000E-010   1.000000000000E+002  K  1.000000000000E+000   0.000000000000E+000 
Fam6_18 log factor  1.000000000000E-002   1.000000000000E-010   1.000000000000E+002  K  1.000000000000E+000   0.000000000000E+000 
Fam6_19 log factor  1.000000000000E-002   1.000000000000E-010   1.000000000000E+002  K  1.000000000000E+000   0.000000000000E+000 
Fam6_20 log factor  1.000000000000E-002   1.000000000000E-010   1.000000000000E+002  K  1.000000000000E+000   0.000000000000E+000 
Fam6_21 log factor  1.000000000000E-002   1.000000000000E-010   1.000000000000E+002  K  1.000000000000E+000   0.000000000000E+000 
Fam6_22 log factor  1.000000000000E-002   1.000000000000E-010   1.000000000000E+002  K  1.000000000000E+000   0.000000000000E+000 
Fam6_23 log factor  1.000000000000E-002   1.000000000000E-010   1.000000000000E+002  K  1.000000000000E+000   0.000000000000E+000 
Fam6_24 log factor  1.000000000000E-002   1.000000000000E-010   1.000000000000E+002  K  1.000000000000E+000   0.000000000000E+000 
Fam6_25 log factor  1.000000000000E-002   1.000000000000E-010   1.000000000000E+002  K  1.000000000000E+000   0.000000000000E+000 
Fam6_26 log factor  1.000000000000E-002   1.000000000000E-010   1.000000000000E+002  K  1.000000000000E+000   0.000000000000E+000 
Fam7_1 log factor  1.000000000000E-004   1.000000000000E-010   1.000000000000E+002  K  1.000000000000E+000   0.000000000000E+000  # Parameters in the Fam7_ family are pilot point parameters related to Hk1 in layer      1 in data set Ky
Fam7_2 log factor  1.000000000000E-004   1.000000000000E-010   1.000000000000E+002  K  1.000000000000E+000   0.000000000000E+000 
Fam7_3 log factor  1.000000000000E-004   1.000000000000E-010   1.000000000000E+002  K  1.000000000000E+000   0.000000000000E+000 
Fam7_4 log factor  1.000000000000E-004   1.000000000000E-010   1.000000000000E+002  K  1.000000000000E+000   0.000000000000E+000 
Fam7_5 log factor  1.000000000000E-004   1.000000000000E-010   1.000000000000E+002  K  1.000000000000E+000   0.000000000000E+000 
Fam7_6 log factor  1.000000000000E-004   1.000000000000E-010   1.000000000000E+002  K  1.000000000000E+000   0.000000000000E+000 
Fam7_7 log factor  1.000000000000E-004   1.000000000000E-010   1.000000000000E+002  K  1.000000000000E+000   0.000000000000E+000 
Fam7_8 log factor  1.000000000000E-004   1.000000000000E-010   1.000000000000E+002  K  1.000000000000E+000   0.000000000000E+000 
Fam7_9 log factor  1.000000000000E-004   1.000000000000E-010   1.000000000000E+002  K  1.000000000000E+000   0.000000000000E+000 
Fam7_10 log factor  1.000000000000E-004   1.000000000000E-010   1.000000000000E+002  K  1.000000000000E+000   0.000000000000E+000 
Fam7_11 log factor  1.000000000000E-004   1.000000000000E-010   1.000000000000E+002  K  1.000000000000E+000   0.000000000000E+000 
Fam7_12 log factor  1.000000000000E-004   1.000000000000E-010   1.000000000000E+002  K  1.000000000000E+000   0.000000000000E+000 
Fam7_13 log factor  1.000000000000E-004   1.000000000000E-010   1.000000000000E+002  K  1.000000000000E+000   0.000000000000E+000 
Fam7_14 log factor  1.000000000000E-004   1.000000000000E-010   1.000000000000E+002  K  1.000000000000E+000   0.000000000000E+000 
Fam7_15 log factor  1.000000000000E-004   1.000000000000E-010   1.000000000000E+002  K  1.000000000000E+000   0.000000000000E+000 
Fam7_16 log factor  1.000000000000E-004   1.000000000000E-010   1.000000000000E+002  K  1.000000000000E+000   0.000000000000E+000 
Fam7_17 log factor  1.000000000000E-004   1.000000000000E-010   1.000000000000E+002  K  1.000000000000E+000   0.000000000000E+000 
Fam7_18 log factor  1.000000000000E-004   1.000000000000E-010   1.000000000000E+002  K  1.000000000000E+000   0.000000000000E+000 
Fam7_19 log factor  1.000000000000E-004   1.000000000000E-010   1.000000000000E+002  K  1.000000000000E+000   0.000000000000E+000 
Fam7_20 log factor  1.000000000000E-004   1.000000000000E-010   1.000000000000E+002  K  1.000000000000E+000   0.000000000000E+000 
Fam7_21 log factor  1.000000000000E-004   1.000000000000E-010   1.000000000000E+002  K  1.000000000000E+000   0.000000000000E+000 
Fam7_22 log factor  1.000000000000E-004   1.000000000000E-010   1.000000000000E+002  K  1.000000000000E+000   0.000000000000E+000 
Fam7_23 log factor  1.000000000000E-004   1.000000000000E-010   1.000000000000E+002  K  1.000000000000E+000   0.000000000000E+000 
Fam7_24 log factor  1.000000000000E-004   1.000000000000E-010   1.000000000000E+002  K  1.000000000000E+000   0.000000000000E+000 
Fam7_25 log factor  1.000000000000E-004   1.000000000000E-010   1.000000000000E+002  K  1.000000000000E+000   0.000000000000E+000 
Fam7_26 log factor  1.000000000000E-004   1.000000000000E-010   1.000000000000E+002  K  1.000000000000E+000   0.000000000000E+000 
Fam8_1 log factor  1.000000000000E-002   1.000000000000E-010   1.000000000000E+002  K  1.000000000000E+000   0.000000000000E+000  # Parameters in the Fam8_ family are pilot point parameters related to Hk2 in layer      1 in data set Ky
Fam8_2 log factor  1.000000000000E-002   1.000000000000E-010   1.000000000000E+002  K  1.000000000000E+000   0.000000000000E+000 
Fam8_3 log factor  1.000000000000E-002   1.000000000000E-010   1.000000000000E+002  K  1.000000000000E+000   0.000000000000E+000 
Fam8_4 log factor  1.000000000000E-002   1.000000000000E-010   1.000000000000E+002  K  1.000000000000E+000   0.000000000000E+000 
Fam8_5 log factor  1.000000000000E-002   1.000000000000E-010   1.000000000000E+002  K  1.000000000000E+000   0.000000000000E+000 
Fam8_6 log factor  1.000000000000E-002   1.000000000000E-010   1.000000000000E+002  K  1.000000000000E+000   0.000000000000E+000 
Fam8_7 log factor  1.000000000000E-002   1.000000000000E-010   1.000000000000E+002  K  1.000000000000E+000   0.000000000000E+000 
Fam8_8 log factor  1.000000000000E-002   1.000000000000E-010   1.000000000000E+002  K  1.000000000000E+000   0.000000000000E+000 
Fam8_9 log factor  1.000000000000E-002   1.000000000000E-010   1.000000000000E+002  K  1.000000000000E+000   0.000000000000E+000 
Fam8_10 log factor  1.000000000000E-002   1.000000000000E-010   1.000000000000E+002  K  1.000000000000E+000   0.000000000000E+000 
Fam8_11 log factor  1.000000000000E-002   1.000000000000E-010   1.000000000000E+002  K  1.000000000000E+000   0.000000000000E+000 
Fam8_12 log factor  1.000000000000E-002   1.000000000000E-010   1.000000000000E+002  K  1.000000000000E+000   0.000000000000E+000 
Fam8_13 log factor  1.000000000000E-002   1.000000000000E-010   1.000000000000E+002  K  1.000000000000E+000   0.000000000000E+000 
Fam8_14 log factor  1.000000000000E-002   1.000000000000E-010   1.000000000000E+002  K  1.000000000000E+000   0.000000000000E+000 
Fam8_15 log factor  1.000000000000E-002   1.000000000000E-010   1.000000000000E+002  K  1.000000000000E+000   0.000000000000E+000 
Fam8_16 log factor  1.000000000000E-002   1.000000000000E-010   1.000000000000E+002  K  1.000000000000E+000   0.000000000000E+000 
Fam8_17 log factor  1.000000000000E-002   1.000000000000E-010   1.000000000000E+002  K  1.000000000000E+000   0.000000000000E+000 
Fam8_18 log factor  1.000000000000E-002   1.000000000000E-010   1.000000000000E+002  K  1.000000000000E+000   0.000000000000E+000 
Fam8_19 log factor  1.000000000000E-002   1.000000000000E-010   1.000000000000E+002  K  1.000000000000E+000   0.000000000000E+000 
Fam8_20 log factor  1.000000000000E-002   1.000000000000E-010   1.000000000000E+002  K  1.000000000000E+000   0.000000000000E+000 
Fam8_21 log factor  1.000000000000E-002   1.000000000000E-010   1.000000000000E+002  K  1.000000000000E+000   0.000000000000E+000 
Fam8_22 log factor  1.000000000000E-002   1.000000000000E-010   1.000000000000E+002  K  1.000000000000E+000   0.000000000000E+000 
Fam8_23 log factor  1.000000000000E-002   1.000000000000E-010   1.000000000000E+002  K  1.000000000000E+000   0.000000000000E+000 
Fam8_24 log factor  1.000000000000E-002   1.000000000000E-010   1.000000000000E+002  K  1.000000000000E+000   0.000000000000E+000 
Fam8_25 log factor  1.000000000000E-002   1.000000000000E-010   1.000000000000E+002  K  1.000000000000E+000   0.000000000000E+000 
Fam8_26 log factor  1.000000000000E-002   1.000000000000E-010   1.000000000000E+002  K  1.000000000000E+000   0.000000000000E+000 