# Output Control file created on 7/2/2021 by ModelMuse version 4.3.0.56.
BEGIN OPTIONS
  BUDGET FILEOUT 'PestPilotPointTest.cbc'
  HEAD FILEOUT 'PestPilotPointTest.bhd'
END OPTIONS

BEGIN PERIOD      1
  SAVE HEAD ALL
  PRINT BUDGET ALL
  SAVE BUDGET ALL
END PERIOD 

