# NPF: Node Property Flow package file created on 9/19/2022 by ModelMuse version 5.0.0.27.
BEGIN OPTIONS
    SAVE_FLOWS
  SAVE_SPECIFIC_DISCHARGE
  SAVE_SATURATION
END OPTIONS


BEGIN GRIDDATA
  ICELLTYPE LAYERED IPRN     5
    CONSTANT      0 # ICELLTYPE 1
    CONSTANT      0 # ICELLTYPE 2
    CONSTANT      0 # ICELLTYPE 3
  K LAYERED IPRN    12
  OPEN/CLOSE arrays\PestPilotPointTest.Kx_1.arrays IPRN    12
  OPEN/CLOSE arrays\PestPilotPointTest.Kx_2.arrays IPRN    12
  OPEN/CLOSE arrays\PestPilotPointTest.Kx_3.arrays IPRN    12
  K33 LAYERED
    INTERNAL IPRN     12 # K33 1
        1.000000000000E-003   1.000000000000E-005   1.000000000000E-005   1.000000000000E-005   1.000000000000E-005   1.000000000000E-005   1.000000000000E-005   1.000000000000E-005   1.000000000000E-005   1.000000000000E-005 
        1.000000000000E-003   1.000000000000E-003   1.000000000000E-005   1.000000000000E-005   1.000000000000E-005   1.000000000000E-005   1.000000000000E-005   1.000000000000E-005   1.000000000000E-005   1.000000000000E-005 
        1.000000000000E-003   1.000000000000E-003   1.000000000000E-003   1.000000000000E-005   1.000000000000E-005   1.000000000000E-005   1.000000000000E-005   1.000000000000E-005   1.000000000000E-005   1.000000000000E-005 
        1.000000000000E-003   1.000000000000E-003   1.000000000000E-003   1.000000000000E-003   1.000000000000E-005   1.000000000000E-005   1.000000000000E-005   1.000000000000E-005   1.000000000000E-005   1.000000000000E-005 
        1.000000000000E-003   1.000000000000E-003   1.000000000000E-003   1.000000000000E-003   1.000000000000E-003   1.000000000000E-005   1.000000000000E-005   1.000000000000E-005   1.000000000000E-005   1.000000000000E-005 
        1.000000000000E-003   1.000000000000E-003   1.000000000000E-003   1.000000000000E-003   1.000000000000E-003   1.000000000000E-003   1.000000000000E-005   1.000000000000E-005   1.000000000000E-005   1.000000000000E-005 
        1.000000000000E-003   1.000000000000E-003   1.000000000000E-003   1.000000000000E-003   1.000000000000E-003   1.000000000000E-003   1.000000000000E-003   1.000000000000E-005   1.000000000000E-005   1.000000000000E-005 
        1.000000000000E-003   1.000000000000E-003   1.000000000000E-003   1.000000000000E-003   1.000000000000E-003   1.000000000000E-003   1.000000000000E-003   1.000000000000E-003   1.000000000000E-005   1.000000000000E-005 
        1.000000000000E-003   1.000000000000E-003   1.000000000000E-003   1.000000000000E-003   1.000000000000E-003   1.000000000000E-003   1.000000000000E-003   1.000000000000E-003   1.000000000000E-003   1.000000000000E-005 
        1.000000000000E-003   1.000000000000E-003   1.000000000000E-003   1.000000000000E-003   1.000000000000E-003   1.000000000000E-003   1.000000000000E-003   1.000000000000E-003   1.000000000000E-003   1.000000000000E-003 
    INTERNAL IPRN     12 # K33 2
        1.000000000000E-003   1.000000000000E-005   1.000000000000E-005   1.000000000000E-005   1.000000000000E-005   1.000000000000E-005   1.000000000000E-005   1.000000000000E-005   1.000000000000E-005   1.000000000000E-005 
        1.000000000000E-003   1.000000000000E-003   1.000000000000E-005   1.000000000000E-005   1.000000000000E-005   1.000000000000E-005   1.000000000000E-005   1.000000000000E-005   1.000000000000E-005   1.000000000000E-005 
        1.000000000000E-003   1.000000000000E-003   1.000000000000E-003   1.000000000000E-005   1.000000000000E-005   1.000000000000E-005   1.000000000000E-005   1.000000000000E-005   1.000000000000E-005   1.000000000000E-005 
        1.000000000000E-003   1.000000000000E-003   1.000000000000E-003   1.000000000000E-003   1.000000000000E-005   1.000000000000E-005   1.000000000000E-005   1.000000000000E-005   1.000000000000E-005   1.000000000000E-005 
        1.000000000000E-003   1.000000000000E-003   1.000000000000E-003   1.000000000000E-003   1.000000000000E-003   1.000000000000E-005   1.000000000000E-005   1.000000000000E-005   1.000000000000E-005   1.000000000000E-005 
        1.000000000000E-003   1.000000000000E-003   1.000000000000E-003   1.000000000000E-003   1.000000000000E-003   1.000000000000E-003   1.000000000000E-005   1.000000000000E-005   1.000000000000E-005   1.000000000000E-005 
        1.000000000000E-003   1.000000000000E-003   1.000000000000E-003   1.000000000000E-003   1.000000000000E-003   1.000000000000E-003   1.000000000000E-003   1.000000000000E-005   1.000000000000E-005   1.000000000000E-005 
        1.000000000000E-003   1.000000000000E-003   1.000000000000E-003   1.000000000000E-003   1.000000000000E-003   1.000000000000E-003   1.000000000000E-003   1.000000000000E-003   1.000000000000E-005   1.000000000000E-005 
        1.000000000000E-003   1.000000000000E-003   1.000000000000E-003   1.000000000000E-003   1.000000000000E-003   1.000000000000E-003   1.000000000000E-003   1.000000000000E-003   1.000000000000E-003   1.000000000000E-005 
        1.000000000000E-003   1.000000000000E-003   1.000000000000E-003   1.000000000000E-003   1.000000000000E-003   1.000000000000E-003   1.000000000000E-003   1.000000000000E-003   1.000000000000E-003   1.000000000000E-003 
    INTERNAL IPRN     12 # K33 3
        1.000000000000E-003   1.000000000000E-005   1.000000000000E-005   1.000000000000E-005   1.000000000000E-005   1.000000000000E-005   1.000000000000E-005   1.000000000000E-005   1.000000000000E-005   1.000000000000E-005 
        1.000000000000E-003   1.000000000000E-003   1.000000000000E-005   1.000000000000E-005   1.000000000000E-005   1.000000000000E-005   1.000000000000E-005   1.000000000000E-005   1.000000000000E-005   1.000000000000E-005 
        1.000000000000E-003   1.000000000000E-003   1.000000000000E-003   1.000000000000E-005   1.000000000000E-005   1.000000000000E-005   1.000000000000E-005   1.000000000000E-005   1.000000000000E-005   1.000000000000E-005 
        1.000000000000E-003   1.000000000000E-003   1.000000000000E-003   1.000000000000E-003   1.000000000000E-005   1.000000000000E-005   1.000000000000E-005   1.000000000000E-005   1.000000000000E-005   1.000000000000E-005 
        1.000000000000E-003   1.000000000000E-003   1.000000000000E-003   1.000000000000E-003   1.000000000000E-003   1.000000000000E-005   1.000000000000E-005   1.000000000000E-005   1.000000000000E-005   1.000000000000E-005 
        1.000000000000E-003   1.000000000000E-003   1.000000000000E-003   1.000000000000E-003   1.000000000000E-003   1.000000000000E-003   1.000000000000E-005   1.000000000000E-005   1.000000000000E-005   1.000000000000E-005 
        1.000000000000E-003   1.000000000000E-003   1.000000000000E-003   1.000000000000E-003   1.000000000000E-003   1.000000000000E-003   1.000000000000E-003   1.000000000000E-005   1.000000000000E-005   1.000000000000E-005 
        1.000000000000E-003   1.000000000000E-003   1.000000000000E-003   1.000000000000E-003   1.000000000000E-003   1.000000000000E-003   1.000000000000E-003   1.000000000000E-003   1.000000000000E-005   1.000000000000E-005 
        1.000000000000E-003   1.000000000000E-003   1.000000000000E-003   1.000000000000E-003   1.000000000000E-003   1.000000000000E-003   1.000000000000E-003   1.000000000000E-003   1.000000000000E-003   1.000000000000E-005 
        1.000000000000E-003   1.000000000000E-003   1.000000000000E-003   1.000000000000E-003   1.000000000000E-003   1.000000000000E-003   1.000000000000E-003   1.000000000000E-003   1.000000000000E-003   1.000000000000E-003 
  K22 LAYERED IPRN    12
  OPEN/CLOSE arrays\PestPilotPointTest.Ky_1.arrays IPRN    12
  OPEN/CLOSE arrays\PestPilotPointTest.Ky_2.arrays IPRN    12
  OPEN/CLOSE arrays\PestPilotPointTest.Ky_3.arrays IPRN    12
  angle1 LAYERED IPRN    12
    CONSTANT   0.000000000000E+000  # angle1 1

    CONSTANT   0.000000000000E+000  # angle1 2

    CONSTANT   0.000000000000E+000  # angle1 3

  angle2 LAYERED IPRN    12
    CONSTANT   0.000000000000E+000  # angle2 1

    CONSTANT   0.000000000000E+000  # angle2 2

    CONSTANT   0.000000000000E+000  # angle2 3

  angle3 LAYERED IPRN    12
    CONSTANT   0.000000000000E+000  # angle3 1

    CONSTANT   0.000000000000E+000  # angle3 2

    CONSTANT   0.000000000000E+000  # angle3 3

END GRIDDATA

