# Name File for MODFLOW created on 12/3/2021 by ModelMuse Version 4.3.0.74
BEGIN OPTIONS
  LIST PestPilotPointTest.lst
  PRINT_INPUT
  SAVE_FLOWS
END OPTIONS

BEGIN PACKAGES
  DIS6         PestPilotPointTest.dis  DIS
  IC6          PestPilotPointTest.ic  IC
  NPF6         PestPilotPointTest.npf  NPF
  OBS6         PestPilotPointTest.ob_gw
  OC6          PestPilotPointTest.oc  OC
  CHD6         PestPilotPointTest.chd  CHD-1
  DRN6         PestPilotPointTest.drn  DRN-1
END PACKAGES
