BEGIN TIMING
  TDIS6 'Prediction.tdis'
END TIMING

BEGIN MODELS
  GWF6 'Prediction.nam' 'MODFLOW'
END MODELS

BEGIN EXCHANGES
END EXCHANGES

BEGIN SOLUTIONGROUP     1
  MXITER     1
  IMS6 'Prediction.ims' 'MODFLOW' 
END SOLUTIONGROUP

