ptf @
etf %
# RIV: River package file created on 8/15/2021 by ModelMuse version 4.3.0.58.
# (and then modified by a parameter estimation program.)
BEGIN OPTIONS
    AUXILIARY IFACE
    BOUNDNAMES
    PRINT_INPUT
    SAVE_FLOWS
END OPTIONS

BEGIN DIMENSIONS
  MAXBOUND     1
END DIMENSIONS

BEGIN PERIOD      1
     1     8     8  2.000000000000E+000  %                    @                    RIV_Par1@ * 1 *  @                    Pparam@%  -2.000000000000E+000      0 'Object14'  # Data Set 6: Layer Row Column Stage Cond Rbot IFACE boundname
END PERIOD 

