# STO: Storage package file created on 8/15/2021 by ModelMuse version 4.3.0.58.
BEGIN OPTIONS
    SAVE_FLOWS
END OPTIONS

BEGIN GRIDDATA
  ICONVERT LAYERED IPRN     5
    CONSTANT      0 # ICONVERT 1
    CONSTANT      0 # ICONVERT 2
    CONSTANT      0 # ICONVERT 3
  SS LAYERED IPRN    12
    CONSTANT   1.000000000000E-005  # SS 1

    CONSTANT   1.000000000000E-005  # SS 2

    CONSTANT   1.000000000000E-005  # SS 3

  SY LAYERED IPRN    12
    CONSTANT   2.000000000000E-001  # SY 1

    CONSTANT   2.000000000000E-001  # SY 2

    CONSTANT   2.000000000000E-001  # SY 3

END GRIDDATA

BEGIN PERIOD      1
  STEADY-STATE
END PERIOD 

BEGIN PERIOD      2
  TRANSIENT
END PERIOD 

