# TDIS file created on 1/20/2023 by ModelMuse version 5.1.1.8.

BEGIN OPTIONS
  TIME_UNITS seconds
END OPTIONS

BEGIN DIMENSIONS
  NPER     2
END DIMENSIONS

BEGIN PERIODDATA
    1.000000000000E+000      1  1.000000000000E+000  # perlen nstp tsmult, Stress period      1 Time = -1.000000000000E+000  -  0.000000000000E+000 
    1.000000000000E+000      1  1.000000000000E+000  # perlen nstp tsmult, Stress period      2 Time =  0.000000000000E+000  -  1.000000000000E+000 
END PERIODDATA
