# GHB: General-Head Boundary package file created on 8/15/2021 by ModelMuse version 4.3.0.58.
BEGIN OPTIONS
    AUXILIARY IFACE
    BOUNDNAMES
    PRINT_INPUT
    SAVE_FLOWS
END OPTIONS

BEGIN DIMENSIONS
  MAXBOUND     1
END DIMENSIONS

BEGIN PERIOD      1
END PERIOD 

BEGIN PERIOD      2
     1     5     9 -1.000000000000E+000   6.000000000000E+000      0 'Object13'  # Data Set 6: Layer Row Column Bhead Cond IFACE boundname
END PERIOD 

