# Output Control file created on 7/13/2021 by ModelMuse version 4.3.0.56.
BEGIN OPTIONS
  BUDGET FILEOUT 'RechAddTestMf6.cbc'
  HEAD FILEOUT 'RechAddTestMf6.bhd'
END OPTIONS

BEGIN PERIOD      1
  SAVE HEAD ALL
  PRINT BUDGET ALL
  SAVE BUDGET ALL
END PERIOD 

