# Name File for MODFLOW created on 12/3/2021 by ModelMuse Version 4.3.0.74
BEGIN OPTIONS
  LIST RechAddTestMf6.lst
  PRINT_INPUT
  SAVE_FLOWS
END OPTIONS

BEGIN PACKAGES
  DIS6         RechAddTestMf6.dis  DIS
  IC6          RechAddTestMf6.ic  IC
  NPF6         RechAddTestMf6.npf  NPF
  OBS6         RechAddTestMf6.ob_gw
  OC6          RechAddTestMf6.oc  OC
  CHD6         RechAddTestMf6.chd  CHD-1
  RCH6         RechAddTestMf6.rch  RCH-1
END PACKAGES
