ptf @
etf %
# CHD: Time-Variant Specified-Head package file created on 7/13/2021 by ModelMuse version 4.3.0.56.
BEGIN OPTIONS
    AUXILIARY IFACE
    BOUNDNAMES
    PRINT_INPUT
    SAVE_FLOWS
END OPTIONS

BEGIN DIMENSIONS
  MAXBOUND     1
END DIMENSIONS

BEGIN PERIOD      1
     1    10    10 %                    @                    CHD_MF6@ * 0%      0 'Object4'  # Data Set 6: Layer Row Column Shead IFACE boundname
END PERIOD 

