BEGIN OPTIONS
  PRINT_INPUT
END OPTIONS

BEGIN TIMING
  TDIS6 'RechAddTestMf6.tdis'
END TIMING

BEGIN MODELS
  GWF6 'RechAddTestMf6.nam' 'MODFLOW'
END MODELS

BEGIN EXCHANGES
END EXCHANGES

BEGIN SOLUTIONGROUP     1
  MXITER     1
  IMS6 'RechAddTestMf6.ims' 'MODFLOW' 
END SOLUTIONGROUP

