ptf @
etf %
# RCH: Recharge package file created on 7/13/2021 by ModelMuse version 4.3.0.56.
BEGIN OPTIONS
  AUXILIARY IFACE
  PRINT_INPUT
    SAVE_FLOWS
    BOUNDNAMES
  FIXED_CELL
END OPTIONS

BEGIN DIMENSIONS
  MAXBOUND    36
END DIMENSIONS

BEGIN PERIOD      1
     1     3     8  3.000000000000E+000      0 'Object2' 
     1     3     7  3.000000000000E+000      0 'Object2' 
     1     3     6  3.000000000000E+000      0 'Object2' 
     1     3     5  3.000000000000E+000      0 'Object2' 
     1     2     8  3.000000000000E+000      0 'Object2' 
     1     2     7  3.000000000000E+000      0 'Object2' 
     1     2     6  3.000000000000E+000      0 'Object2' 
     1     2     5  3.000000000000E+000      0 'Object2' 
     1     1     8  3.000000000000E+000      0 'Object2' 
     1     1     7  3.000000000000E+000      0 'Object2' 
     1     1     6  3.000000000000E+000      0 'Object2' 
     1     1     5  3.000000000000E+000      0 'Object2' 
     1     1     3  3.000000000000E+000      0 'Object2' 
     1     6     6  2.000000000000E+000      0 'Object1' 
     1     6     5  2.000000000000E+000      0 'Object1' 
     1     6     4  2.000000000000E+000      0 'Object1' 
     1     6     3  2.000000000000E+000      0 'Object1' 
     1     5     6  2.000000000000E+000      0 'Object1' 
     1     5     5  2.000000000000E+000      0 'Object1' 
     1     5     4  2.000000000000E+000      0 'Object1' 
     1     5     3  2.000000000000E+000      0 'Object1' 
     1     4     6  2.000000000000E+000      0 'Object1' 
     1     4     5  2.000000000000E+000      0 'Object1' 
     1     4     4  2.000000000000E+000      0 'Object1' 
     1     4     3  2.000000000000E+000      0 'Object1' 
     1     3     4  2.000000000000E+000      0 'Object1' 
     1     3     3  2.000000000000E+000      0 'Object1' 
     1     3     2 %                    (1 *  @                    b@) *  @                    a@%      0 'Object0' 
     1     3     1 %                    (1 *  @                    b@) *  @                    a@%      0 'Object0' 
     1     2     4 %                    (1 *  @                    b@) *  @                    a@%      0 'Object0' 
     1     2     3 %                    (1 *  @                    b@) *  @                    a@%      0 'Object0' 
     1     2     2 %                    (1 *  @                    b@) *  @                    a@%      0 'Object0' 
     1     2     1 %                    (1 *  @                    b@) *  @                    a@%      0 'Object0' 
     1     1     4 %                    (1 *  @                    b@) *  @                    a@%      0 'Object0' 
     1     1     2 %                    (1 *  @                    b@) *  @                    a@%      0 'Object0' 
     1     1     1 %                    (1 *  @                    b@) *  @                    a@%      0 'Object0' 
END PERIOD 

