pcf
* control data
restart estimation # RSTFLE PESTMODE
    58    10     2    58     6     1 # NPAR NOBS NPARGP, NPRIOR NOBSGP, MAXCOMPRDIM
     4     1 double nopoint noobsreref # NTPLFLE, NINSFLE, PRECIS, DPOINT, OBSREREF
  1.000000000000E+001  -3.000000000000E+000   3.000000000000E-001   1.000000000000E-002     10     0 lamforgive noderforgive # RLAMBDA1, RLAMFAC, PHIRATSUF, PHIREDLAM, NUMLAM, JACUPDATE, LAMFORGIVE, DERFORGIVE
  3.000000000000E+000   3.000000000000E+000   1.000000000000E-003      0     1 # RELPARMAX, FACPARMAX, FACORIG, IBOUNDSTICK, UPVECBEND
  1.000000000000E-001      3  0.000000000000E+000  noaui nosenreuse boundscale # PHIREDSWH, NOPTSWITCH, SPLITSWH, DOAUI, DOSENREUSE, BOUNDSCALE
    50  5.000000000000E-003      4     4  5.000000000000E-003      4  0.000000000000E+000      1  0.000000000000E+000  # NOPTMAX, PHIREDSTP, NPHISTP, NPHINORED, RELPARSTP, NRELPAR, PHISTOPTHRESH, LASTRUN, PHIABANDON
     0     0     0     0 jcosave nojcosaveitn verboserec reisaveitn parsaveitn noparsaverun # ICOV, ICOR, IEIG, IRES, JCOSAVE, JCOSAVEITN, VERBOSEREC, RESSAVEITN, PARSAVEITN, PARSAVERUN

* singular value decomposition
     1 # SVDMODE
  1000  5.000000000000E-007  # MAXSING, EIGTHRESH
     0 # EIGWRITE

* lsqr
     0 # LSQRMODE
  1.000000000000E-004   1.000000000000E-004   1.000000000000E+003    232 # LSQR_ATOL LSQR_BTOL LSQR_CONLIM LSQR_ITNLIM
     1 # LSQRWRITE

* parameter groups
KGrp relative  1.000000000000E-002   0.000000000000E+000  switch  1.500000000000E+000  parabolic
WellGr relative  1.000000000000E-002   0.000000000000E+000  switch  1.500000000000E+000  parabolic

* parameter data
K log factor  1.000000000000E+000   1.000000000000E-002   1.000000000000E+002  KGrp  1.000000000000E+000   0.000000000000E+000 
Seepage none factor  1.000000000000E+000   1.000000000000E-003   1.000000000000E+002  WellGr  1.000000000000E+000   0.000000000000E+000 
PMX1_1 log factor  1.000000000000E-004   1.000000000000E-006   1.000000000000E-002  KGrp  1.000000000000E+000   0.000000000000E+000  # Parameters in the PMX1_ family are pilot point parameters related to K in layer      1 in data set Maximum_Hydraulic_Conductivity
PMX1_2 log factor  1.000000000000E-004   1.000000000000E-006   1.000000000000E-002  KGrp  1.000000000000E+000   0.000000000000E+000 
PMX1_3 log factor  1.000000000000E-004   1.000000000000E-006   1.000000000000E-002  KGrp  1.000000000000E+000   0.000000000000E+000 
PMX1_4 log factor  1.000000000000E-004   1.000000000000E-006   1.000000000000E-002  KGrp  1.000000000000E+000   0.000000000000E+000 
PMX1_5 log factor  1.000000000000E-004   1.000000000000E-006   1.000000000000E-002  KGrp  1.000000000000E+000   0.000000000000E+000 
PMX1_6 log factor  1.000000000000E-004   1.000000000000E-006   1.000000000000E-002  KGrp  1.000000000000E+000   0.000000000000E+000 
PMX1_7 log factor  1.000000000000E-004   1.000000000000E-006   1.000000000000E-002  KGrp  1.000000000000E+000   0.000000000000E+000 
PMX1_8 log factor  1.000000000000E-004   1.000000000000E-006   1.000000000000E-002  KGrp  1.000000000000E+000   0.000000000000E+000 
PMX1_9 log factor  1.000000000000E-004   1.000000000000E-006   1.000000000000E-002  KGrp  1.000000000000E+000   0.000000000000E+000 
PMX1_10 log factor  1.000000000000E-004   1.000000000000E-006   1.000000000000E-002  KGrp  1.000000000000E+000   0.000000000000E+000 
PMX1_11 log factor  1.000000000000E-004   1.000000000000E-006   1.000000000000E-002  KGrp  1.000000000000E+000   0.000000000000E+000 
PMX1_12 log factor  1.000000000000E-004   1.000000000000E-006   1.000000000000E-002  KGrp  1.000000000000E+000   0.000000000000E+000 
PMX1_13 log factor  1.000000000000E-004   1.000000000000E-006   1.000000000000E-002  KGrp  1.000000000000E+000   0.000000000000E+000 
PMX1_14 log factor  1.000000000000E-004   1.000000000000E-006   1.000000000000E-002  KGrp  1.000000000000E+000   0.000000000000E+000 
PMX1_15 log factor  1.000000000000E-004   1.000000000000E-006   1.000000000000E-002  KGrp  1.000000000000E+000   0.000000000000E+000 
PMX1_16 log factor  1.000000000000E-004   1.000000000000E-006   1.000000000000E-002  KGrp  1.000000000000E+000   0.000000000000E+000 
PMX1_17 log factor  1.000000000000E-004   1.000000000000E-006   1.000000000000E-002  KGrp  1.000000000000E+000   0.000000000000E+000 
PMX1_18 log factor  1.000000000000E-004   1.000000000000E-006   1.000000000000E-002  KGrp  1.000000000000E+000   0.000000000000E+000 
PMX1_19 log factor  1.000000000000E-004   1.000000000000E-006   1.000000000000E-002  KGrp  1.000000000000E+000   0.000000000000E+000 
PMX1_20 log factor  1.000000000000E-004   1.000000000000E-006   1.000000000000E-002  KGrp  1.000000000000E+000   0.000000000000E+000 
PMX1_21 log factor  1.000000000000E-004   1.000000000000E-006   1.000000000000E-002  KGrp  1.000000000000E+000   0.000000000000E+000 
PMX1_22 log factor  1.000000000000E-004   1.000000000000E-006   1.000000000000E-002  KGrp  1.000000000000E+000   0.000000000000E+000 
PMX1_23 log factor  1.000000000000E-004   1.000000000000E-006   1.000000000000E-002  KGrp  1.000000000000E+000   0.000000000000E+000 
PMX1_24 log factor  1.000000000000E-004   1.000000000000E-006   1.000000000000E-002  KGrp  1.000000000000E+000   0.000000000000E+000 
PMX1_25 log factor  1.000000000000E-004   1.000000000000E-006   1.000000000000E-002  KGrp  1.000000000000E+000   0.000000000000E+000 
PMX1_26 log factor  1.000000000000E-004   1.000000000000E-006   1.000000000000E-002  KGrp  1.000000000000E+000   0.000000000000E+000 
PMX1_27 log factor  1.000000000000E-004   1.000000000000E-006   1.000000000000E-002  KGrp  1.000000000000E+000   0.000000000000E+000 
PMX1_28 log factor  1.000000000000E-004   1.000000000000E-006   1.000000000000E-002  KGrp  1.000000000000E+000   0.000000000000E+000 
PMX1_29 log factor  1.000000000000E-004   1.000000000000E-006   1.000000000000E-002  KGrp  1.000000000000E+000   0.000000000000E+000 
PMX1_30 log factor  1.000000000000E-004   1.000000000000E-006   1.000000000000E-002  KGrp  1.000000000000E+000   0.000000000000E+000 
PMX1_31 log factor  1.000000000000E-004   1.000000000000E-006   1.000000000000E-002  KGrp  1.000000000000E+000   0.000000000000E+000 
PMX1_32 log factor  1.000000000000E-004   1.000000000000E-006   1.000000000000E-002  KGrp  1.000000000000E+000   0.000000000000E+000 
PMX1_33 log factor  1.000000000000E-004   1.000000000000E-006   1.000000000000E-002  KGrp  1.000000000000E+000   0.000000000000E+000 
PMX1_34 log factor  1.000000000000E-004   1.000000000000E-006   1.000000000000E-002  KGrp  1.000000000000E+000   0.000000000000E+000 
PMX1_35 log factor  1.000000000000E-004   1.000000000000E-006   1.000000000000E-002  KGrp  1.000000000000E+000   0.000000000000E+000 
PMX1_36 log factor  1.000000000000E-004   1.000000000000E-006   1.000000000000E-002  KGrp  1.000000000000E+000   0.000000000000E+000 
PMX1_37 log factor  1.000000000000E-004   1.000000000000E-006   1.000000000000E-002  KGrp  1.000000000000E+000   0.000000000000E+000 
PMX1_38 log factor  1.000000000000E-004   1.000000000000E-006   1.000000000000E-002  KGrp  1.000000000000E+000   0.000000000000E+000 
PMX1_39 log factor  1.000000000000E-004   1.000000000000E-006   1.000000000000E-002  KGrp  1.000000000000E+000   0.000000000000E+000 
PMX1_40 log factor  1.000000000000E-004   1.000000000000E-006   1.000000000000E-002  KGrp  1.000000000000E+000   0.000000000000E+000 
PMX1_41 log factor  1.000000000000E-004   1.000000000000E-006   1.000000000000E-002  KGrp  1.000000000000E+000   0.000000000000E+000 
PMX1_42 log factor  1.000000000000E-004   1.000000000000E-006   1.000000000000E-002  KGrp  1.000000000000E+000   0.000000000000E+000 
PMX1_43 log factor  1.000000000000E-004   1.000000000000E-006   1.000000000000E-002  KGrp  1.000000000000E+000   0.000000000000E+000 
PMX1_44 log factor  1.000000000000E-004   1.000000000000E-006   1.000000000000E-002  KGrp  1.000000000000E+000   0.000000000000E+000 
PMX1_45 log factor  1.000000000000E-004   1.000000000000E-006   1.000000000000E-002  KGrp  1.000000000000E+000   0.000000000000E+000 
PMX1_46 log factor  1.000000000000E-004   1.000000000000E-006   1.000000000000E-002  KGrp  1.000000000000E+000   0.000000000000E+000 
PMX1_47 log factor  1.000000000000E-004   1.000000000000E-006   1.000000000000E-002  KGrp  1.000000000000E+000   0.000000000000E+000 
PMX1_48 log factor  1.000000000000E-004   1.000000000000E-006   1.000000000000E-002  KGrp  1.000000000000E+000   0.000000000000E+000 
PMX1_49 log factor  1.000000000000E-004   1.000000000000E-006   1.000000000000E-002  KGrp  1.000000000000E+000   0.000000000000E+000 
PMX1_50 log factor  1.000000000000E-004   1.000000000000E-006   1.000000000000E-002  KGrp  1.000000000000E+000   0.000000000000E+000 
PMX1_51 log factor  1.000000000000E-004   1.000000000000E-006   1.000000000000E-002  KGrp  1.000000000000E+000   0.000000000000E+000 
PMX1_52 log factor  1.000000000000E-004   1.000000000000E-006   1.000000000000E-002  KGrp  1.000000000000E+000   0.000000000000E+000 
PMX1_53 log factor  1.000000000000E-004   1.000000000000E-006   1.000000000000E-002  KGrp  1.000000000000E+000   0.000000000000E+000 
PMX1_54 log factor  1.000000000000E-004   1.000000000000E-006   1.000000000000E-002  KGrp  1.000000000000E+000   0.000000000000E+000 
PMX1_55 log factor  1.000000000000E-004   1.000000000000E-006   1.000000000000E-002  KGrp  1.000000000000E+000   0.000000000000E+000 
PMX1_56 log factor  1.000000000000E-004   1.000000000000E-006   1.000000000000E-002  KGrp  1.000000000000E+000   0.000000000000E+000 

* observation groups
Heads
SPFlows
Comparisons
regul_Grp0
regul_Grp1
regul_Grp3 RmaSutraNodeTest.Maximum_Hydraulic_Conductivity.K.1.Cov.txt

* observation data
Head_Obs1_P  6.900000000000E+001   1.000000000000E+000  Heads
Head_Obs2_P  6.390000000000E+001   1.000000000000E+000  Heads
Head_Obs3_P  5.570000000000E+001   1.000000000000E+000  Heads
Head_Obs4_P  5.190000000000E+001   1.000000000000E+000  Heads
Head_Obs5_P  5.010000000000E+001   1.000000000000E+000  Heads
Head_Obs6_P  3.950000000000E+001   1.000000000000E+000  Heads
Head_Obs7_P  1.420000000000E+001   1.000000000000E+000  Heads
Head_Obs8_P  2.760000000000E+001   1.000000000000E+000  Heads
SP_FlowObs -3.500000000000E-002   1.000000000000E+001  SPFlows
Gradient  2.250000000000E+001   3.000000000000E+000  Comparisons

* model command line
RunModel.Bat

* model input/output
RmaSutraNodeTest.ptf RmaSutraNodeTest.pval
RmaSutraNodeTest.15B.script.tpl RmaSutraNodeTest.15B.script
RmaSutraNodeTest.Maximum_Hydraulic_Conductivity.script.tpl RmaSutraNodeTest.Maximum_Hydraulic_Conductivity.script
RmaSutraNodeTest.Maximum_Hydraulic_Conductivity.K.1.pp.tpl RmaSutraNodeTest.Maximum_Hydraulic_Conductivity.K.1.pp
RmaSutraNodeTest.PestIns RmaSutraNodeTest.SutraValues

* prior information
 eq_1          1.0 * log(K) = 0       1     regul_Grp0
 eq_2          1.0 * Seepage = 1       1     regul_Grp1
 eq_3          1.0 * log(PMX1_1) = -4       1     regul_Grp3
 eq_4          1.0 * log(PMX1_2) = -4       1     regul_Grp3
 eq_5          1.0 * log(PMX1_3) = -4       1     regul_Grp3
 eq_6          1.0 * log(PMX1_4) = -4       1     regul_Grp3
 eq_7          1.0 * log(PMX1_5) = -4       1     regul_Grp3
 eq_8          1.0 * log(PMX1_6) = -4       1     regul_Grp3
 eq_9          1.0 * log(PMX1_7) = -4       1     regul_Grp3
 eq_10          1.0 * log(PMX1_8) = -4       1     regul_Grp3
 eq_11          1.0 * log(PMX1_9) = -4       1     regul_Grp3
 eq_12          1.0 * log(PMX1_10) = -4       1     regul_Grp3
 eq_13          1.0 * log(PMX1_11) = -4       1     regul_Grp3
 eq_14          1.0 * log(PMX1_12) = -4       1     regul_Grp3
 eq_15          1.0 * log(PMX1_13) = -4       1     regul_Grp3
 eq_16          1.0 * log(PMX1_14) = -4       1     regul_Grp3
 eq_17          1.0 * log(PMX1_15) = -4       1     regul_Grp3
 eq_18          1.0 * log(PMX1_16) = -4       1     regul_Grp3
 eq_19          1.0 * log(PMX1_17) = -4       1     regul_Grp3
 eq_20          1.0 * log(PMX1_18) = -4       1     regul_Grp3
 eq_21          1.0 * log(PMX1_19) = -4       1     regul_Grp3
 eq_22          1.0 * log(PMX1_20) = -4       1     regul_Grp3
 eq_23          1.0 * log(PMX1_21) = -4       1     regul_Grp3
 eq_24          1.0 * log(PMX1_22) = -4       1     regul_Grp3
 eq_25          1.0 * log(PMX1_23) = -4       1     regul_Grp3
 eq_26          1.0 * log(PMX1_24) = -4       1     regul_Grp3
 eq_27          1.0 * log(PMX1_25) = -4       1     regul_Grp3
 eq_28          1.0 * log(PMX1_26) = -4       1     regul_Grp3
 eq_29          1.0 * log(PMX1_27) = -4       1     regul_Grp3
 eq_30          1.0 * log(PMX1_28) = -4       1     regul_Grp3
 eq_31          1.0 * log(PMX1_29) = -4       1     regul_Grp3
 eq_32          1.0 * log(PMX1_30) = -4       1     regul_Grp3
 eq_33          1.0 * log(PMX1_31) = -4       1     regul_Grp3
 eq_34          1.0 * log(PMX1_32) = -4       1     regul_Grp3
 eq_35          1.0 * log(PMX1_33) = -4       1     regul_Grp3
 eq_36          1.0 * log(PMX1_34) = -4       1     regul_Grp3
 eq_37          1.0 * log(PMX1_35) = -4       1     regul_Grp3
 eq_38          1.0 * log(PMX1_36) = -4       1     regul_Grp3
 eq_39          1.0 * log(PMX1_37) = -4       1     regul_Grp3
 eq_40          1.0 * log(PMX1_38) = -4       1     regul_Grp3
 eq_41          1.0 * log(PMX1_39) = -4       1     regul_Grp3
 eq_42          1.0 * log(PMX1_40) = -4       1     regul_Grp3
 eq_43          1.0 * log(PMX1_41) = -4       1     regul_Grp3
 eq_44          1.0 * log(PMX1_42) = -4       1     regul_Grp3
 eq_45          1.0 * log(PMX1_43) = -4       1     regul_Grp3
 eq_46          1.0 * log(PMX1_44) = -4       1     regul_Grp3
 eq_47          1.0 * log(PMX1_45) = -4       1     regul_Grp3
 eq_48          1.0 * log(PMX1_46) = -4       1     regul_Grp3
 eq_49          1.0 * log(PMX1_47) = -4       1     regul_Grp3
 eq_50          1.0 * log(PMX1_48) = -4       1     regul_Grp3
 eq_51          1.0 * log(PMX1_49) = -4       1     regul_Grp3
 eq_52          1.0 * log(PMX1_50) = -4       1     regul_Grp3
 eq_53          1.0 * log(PMX1_51) = -4       1     regul_Grp3
 eq_54          1.0 * log(PMX1_52) = -4       1     regul_Grp3
 eq_55          1.0 * log(PMX1_53) = -4       1     regul_Grp3
 eq_56          1.0 * log(PMX1_54) = -4       1     regul_Grp3
 eq_57          1.0 * log(PMX1_55) = -4       1     regul_Grp3
 eq_58          1.0 * log(PMX1_56) = -4       1     regul_Grp3

