BEGIN OPTIONS
  LISTING RmaSutraCompleted.soeOut
  INSTRUCTION RmaSutraCompleted.PestIns
  VALUES RmaSutraCompleted.SutraValues
END OPTIONS

BEGIN OBSERVATION_FILES
  FILENAME RmaSutraCompleted_Head_Obs1.obc OBC
  FILENAME RmaSutraCompleted_Head_Obs2.obc OBC
  FILENAME RmaSutraCompleted_Head_Obs3.obc OBC
  FILENAME RmaSutraCompleted_Head_Obs4.obc OBC
  FILENAME RmaSutraCompleted_Head_Obs5.obc OBC
  FILENAME RmaSutraCompleted_Head_Obs6.obc OBC
  FILENAME RmaSutraCompleted_Head_Obs7.obc OBC
  FILENAME RmaSutraCompleted_Head_Obs8.obc OBC
  FILENAME RmaSutraCompleted.bcop BCOP
END OBSERVATION_FILES

BEGIN IDENTIFIERS
  ID Head_Obs1 P
    OBSNAME Head_Obs1_P  0.000000000000E+000  PRINT
  ID Head_Obs2 P
    OBSNAME Head_Obs2_P  0.000000000000E+000  PRINT
  ID Head_Obs3 P
    OBSNAME Head_Obs3_P  0.000000000000E+000  PRINT
  ID Head_Obs4 P
    OBSNAME Head_Obs4_P  0.000000000000E+000  PRINT
  ID Head_Obs5 P
    OBSNAME Head_Obs5_P  0.000000000000E+000  PRINT
  ID Head_Obs6 P
    OBSNAME Head_Obs6_P  0.000000000000E+000  PRINT
  ID Head_Obs7 P
    OBSNAME Head_Obs7_P  0.000000000000E+000  PRINT
  ID Head_Obs8 P
    OBSNAME Head_Obs8_P  0.000000000000E+000  PRINT
  ID 16 PF   269
    OBSNAME PF16_269_0  0.000000000000E+000 
  ID 16 PR   269
    OBSNAME PR16_269_0  6.311520000000E+008 
  ID 17 PF   270
    OBSNAME PF17_270_0  0.000000000000E+000 
  ID 17 PR   270
    OBSNAME PR17_270_0  6.311520000000E+008 
  ID 19 PF   272
    OBSNAME PF19_272_0  0.000000000000E+000 
  ID 19 PR   272
    OBSNAME PR19_272_0  6.311520000000E+008 
  ID 21 PF   304
    OBSNAME PF21_304_0  0.000000000000E+000 
  ID 21 PR   304
    OBSNAME PR21_304_0  6.311520000000E+008 
  ID 23 PF   331
    OBSNAME PF23_331_0  0.000000000000E+000 
  ID 23 PR   331
    OBSNAME PR23_331_0  6.311520000000E+008 
  ID 24 PF   354
    OBSNAME PF24_354_0  0.000000000000E+000 
  ID 24 PR   354
    OBSNAME PR24_354_0  6.311520000000E+008 
  ID 26 PF   356
    OBSNAME PF26_356_0  0.000000000000E+000 
  ID 26 PR   356
    OBSNAME PR26_356_0  6.311520000000E+008 
  ID 28 PF   369
    OBSNAME PF28_369_0  0.000000000000E+000 
  ID 28 PR   369
    OBSNAME PR28_369_0  6.311520000000E+008 
  ID 30 PF   382
    OBSNAME PF30_382_0  0.000000000000E+000 
  ID 30 PR   382
    OBSNAME PR30_382_0  6.311520000000E+008 
  ID 32 PF   395
    OBSNAME PF32_395_0  0.000000000000E+000 
  ID 32 PR   395
    OBSNAME PR32_395_0  6.311520000000E+008 
  ID 34 PF   397
    OBSNAME PF34_397_0  0.000000000000E+000 
  ID 34 PR   397
    OBSNAME PR34_397_0  6.311520000000E+008 
  ID 36 PF   399
    OBSNAME PF36_399_0  0.000000000000E+000 
  ID 36 PR   399
    OBSNAME PR36_399_0  6.311520000000E+008 
  ID 38 PF   401
    OBSNAME PF38_401_0  0.000000000000E+000 
  ID 38 PR   401
    OBSNAME PR38_401_0  6.311520000000E+008 
  ID 39 PF   403
    OBSNAME PF39_403_0  0.000000000000E+000 
  ID 39 PR   403
    OBSNAME PR39_403_0  6.311520000000E+008 
  ID 40 PF   405
    OBSNAME PF40_405_0  0.000000000000E+000 
  ID 40 PR   405
    OBSNAME PR40_405_0  6.311520000000E+008 
  ID 41 PF   407
    OBSNAME PF41_407_0  0.000000000000E+000 
  ID 41 PR   407
    OBSNAME PR41_407_0  6.311520000000E+008 
  ID 42 PF   409
    OBSNAME PF42_409_0  0.000000000000E+000 
  ID 42 PR   409
    OBSNAME PR42_409_0  6.311520000000E+008 
  ID 43 PF   411
    OBSNAME PF43_411_0  0.000000000000E+000 
  ID 43 PR   411
    OBSNAME PR43_411_0  6.311520000000E+008 
  ID 44 PF   413
    OBSNAME PF44_413_0  0.000000000000E+000 
  ID 44 PR   413
    OBSNAME PR44_413_0  6.311520000000E+008 
  ID 45 PF  1037
    OBSNAME PF45_1037_0  0.000000000000E+000 
  ID 45 PR  1037
    OBSNAME PR45_1037_0  6.311520000000E+008 
  ID 46 PF  1045
    OBSNAME PF46_1045_0  0.000000000000E+000 
  ID 46 PR  1045
    OBSNAME PR46_1045_0  6.311520000000E+008 
  ID 47 PF  1053
    OBSNAME PF47_1053_0  0.000000000000E+000 
  ID 47 PR  1053
    OBSNAME PR47_1053_0  6.311520000000E+008 
  ID 48 PF  1061
    OBSNAME PF48_1061_0  0.000000000000E+000 
  ID 48 PR  1061
    OBSNAME PR48_1061_0  6.311520000000E+008 
  ID 49 PF  1092
    OBSNAME PF49_1092_0  0.000000000000E+000 
  ID 49 PR  1092
    OBSNAME PR49_1092_0  6.311520000000E+008 
  ID 50 PF  1103
    OBSNAME PF50_1103_0  0.000000000000E+000 
  ID 50 PR  1103
    OBSNAME PR50_1103_0  6.311520000000E+008 
  ID 51 PF  1111
    OBSNAME PF51_1111_0  0.000000000000E+000 
  ID 51 PR  1111
    OBSNAME PR51_1111_0  6.311520000000E+008 
  ID 52 PF  1112
    OBSNAME PF52_1112_0  0.000000000000E+000 
  ID 52 PR  1112
    OBSNAME PR52_1112_0  6.311520000000E+008 
  ID 53 PF  1113
    OBSNAME PF53_1113_0  0.000000000000E+000 
  ID 53 PR  1113
    OBSNAME PR53_1113_0  6.311520000000E+008 
  ID 54 PF  1600
    OBSNAME PF54_1600_0  0.000000000000E+000 
  ID 54 PR  1600
    OBSNAME PR54_1600_0  6.311520000000E+008 
  ID 55 PF  1603
    OBSNAME PF55_1603_0  0.000000000000E+000 
  ID 55 PR  1603
    OBSNAME PR55_1603_0  6.311520000000E+008 
  ID 56 PF  1606
    OBSNAME PF56_1606_0  0.000000000000E+000 
  ID 56 PR  1606
    OBSNAME PR56_1606_0  6.311520000000E+008 
  ID 57 PF  1609
    OBSNAME PF57_1609_0  0.000000000000E+000 
  ID 57 PR  1609
    OBSNAME PR57_1609_0  6.311520000000E+008 
  ID 58 PF  1612
    OBSNAME PF58_1612_0  0.000000000000E+000 
  ID 58 PR  1612
    OBSNAME PR58_1612_0  6.311520000000E+008 
  ID 59 PF  1615
    OBSNAME PF59_1615_0  0.000000000000E+000 
  ID 59 PR  1615
    OBSNAME PR59_1615_0  6.311520000000E+008 
  ID 60 PF  1618
    OBSNAME PF60_1618_0  0.000000000000E+000 
  ID 60 PR  1618
    OBSNAME PR60_1618_0  6.311520000000E+008 
  ID 61 PF  1619
    OBSNAME PF61_1619_0  0.000000000000E+000 
  ID 61 PR  1619
    OBSNAME PR61_1619_0  6.311520000000E+008 
  ID 62 PF  1623
    OBSNAME PF62_1623_0  0.000000000000E+000 
  ID 62 PR  1623
    OBSNAME PR62_1623_0  6.311520000000E+008 
  ID 63 PF  1627
    OBSNAME PF63_1627_0  0.000000000000E+000 
  ID 63 PR  1627
    OBSNAME PR63_1627_0  6.311520000000E+008 
  ID 64 PF  1632
    OBSNAME PF64_1632_0  0.000000000000E+000 
  ID 64 PR  1632
    OBSNAME PR64_1632_0  6.311520000000E+008 
END IDENTIFIERS

BEGIN DERIVED_OBSERVATIONS
  OBSNAME SP_FlowObs PRINT
    FORMULA 0*PF64_1632_0 + PF63_1627_0 + PF62_1623_0 + PF61_1619_0 + PF60_1618_0 + PF59_1615_0 + PF58_1612_0 + PF57_1609_0 + PF56_1606_0 + PF55_1603_0 + PF54_1600_0 + PF53_1113_0 + PF52_1112_0 + PF51_1111_0 + PF50_1103_0 + PF49_1092_0 + PF48_1061_0 + PF47_1053_0 + PF46_1045_0 + PF45_1037_0 + PF44_413_0 + PF43_411_0 + PF42_409_0 + PF41_407_0 + PF40_405_0 + PF39_403_0 + PF38_401_0 + PF36_399_0 + PF34_397_0 + PF32_395_0 + PF30_382_0 + PF28_369_0 + PF26_356_0 + PF24_354_0 + PF23_331_0 + PF21_304_0 + PF19_272_0 + PF16_269_0 + PF17_270_0
  OBSNAME Gradient PRINT
    FORMULA Head_Obs5_P - Head_Obs8_P
END DERIVED_OBSERVATIONS
