pcf
* control data
restart estimation # RSTFLE PESTMODE
   114    10     2   114     5     1 # NPAR NOBS NPARGP, NPRIOR NOBSGP, MAXCOMPRDIM
     6     1 double nopoint noobsreref # NTPLFLE, NINSFLE, PRECIS, DPOINT, OBSREREF
  1.000000000000E+001  -3.000000000000E+000   3.000000000000E-001   1.000000000000E-002     10     0 lamforgive noderforgive # RLAMBDA1, RLAMFAC, PHIRATSUF, PHIREDLAM, NUMLAM, JACUPDATE, LAMFORGIVE, DERFORGIVE
  3.000000000000E+000   3.000000000000E+000   1.000000000000E-003      0     1 # RELPARMAX, FACPARMAX, FACORIG, IBOUNDSTICK, UPVECBEND
  1.000000000000E-001      3  0.000000000000E+000  noaui nosenreuse boundscale # PHIREDSWH, NOPTSWITCH, SPLITSWH, DOAUI, DOSENREUSE, BOUNDSCALE
    50  5.000000000000E-003      4     4  5.000000000000E-003      4  0.000000000000E+000      1  0.000000000000E+000  # NOPTMAX, PHIREDSTP, NPHISTP, NPHINORED, RELPARSTP, NRELPAR, PHISTOPTHRESH, LASTRUN, PHIABANDON
     0     0     0     0 jcosave nojcosaveitn verboserec reisaveitn parsaveitn noparsaverun # ICOV, ICOR, IEIG, IRES, JCOSAVE, JCOSAVEITN, VERBOSEREC, RESSAVEITN, PARSAVEITN, PARSAVERUN

* singular value decomposition
     1 # SVDMODE
  1000  5.000000000000E-007  # MAXSING, EIGTHRESH
     0 # EIGWRITE

* lsqr
     0 # LSQRMODE
  1.000000000000E-004   1.000000000000E-004   1.000000000000E+003    456 # LSQR_ATOL LSQR_BTOL LSQR_CONLIM LSQR_ITNLIM
     1 # LSQRWRITE

* parameter groups
KGrp relative  1.000000000000E-002   0.000000000000E+000  switch  1.500000000000E+000  parabolic
WellGr relative  1.000000000000E-002   0.000000000000E+000  switch  1.500000000000E+000  parabolic

* parameter data
K log factor  1.000000000000E+000   1.000000000000E-002   1.000000000000E+002  KGrp  1.000000000000E+000   0.000000000000E+000 
Seepage none factor  1.000000000000E+000   1.000000000000E-003   1.000000000000E+002  WellGr  1.000000000000E+000   0.000000000000E+000 
PMX1_1 log factor  1.000000000000E-004   1.000000000000E-006   1.000000000000E-002  KGrp  1.000000000000E+000   0.000000000000E+000  # Parameters in the PMX1_ family are pilot point parameters related to K in layer      1 in data set Maximum_Hydraulic_Conductivity
PMX1_2 log factor  1.000000000000E-004   1.000000000000E-006   1.000000000000E-002  KGrp  1.000000000000E+000   0.000000000000E+000 
PMX1_3 log factor  1.000000000000E-004   1.000000000000E-006   1.000000000000E-002  KGrp  1.000000000000E+000   0.000000000000E+000 
PMX1_4 log factor  1.000000000000E-004   1.000000000000E-006   1.000000000000E-002  KGrp  1.000000000000E+000   0.000000000000E+000 
PMX1_5 log factor  1.000000000000E-004   1.000000000000E-006   1.000000000000E-002  KGrp  1.000000000000E+000   0.000000000000E+000 
PMX1_6 log factor  1.000000000000E-004   1.000000000000E-006   1.000000000000E-002  KGrp  1.000000000000E+000   0.000000000000E+000 
PMX1_7 log factor  1.000000000000E-004   1.000000000000E-006   1.000000000000E-002  KGrp  1.000000000000E+000   0.000000000000E+000 
PMX1_8 log factor  1.000000000000E-004   1.000000000000E-006   1.000000000000E-002  KGrp  1.000000000000E+000   0.000000000000E+000 
PMX1_9 log factor  1.000000000000E-004   1.000000000000E-006   1.000000000000E-002  KGrp  1.000000000000E+000   0.000000000000E+000 
PMX1_10 log factor  1.000000000000E-004   1.000000000000E-006   1.000000000000E-002  KGrp  1.000000000000E+000   0.000000000000E+000 
PMX1_11 log factor  1.000000000000E-004   1.000000000000E-006   1.000000000000E-002  KGrp  1.000000000000E+000   0.000000000000E+000 
PMX1_12 log factor  1.000000000000E-004   1.000000000000E-006   1.000000000000E-002  KGrp  1.000000000000E+000   0.000000000000E+000 
PMX1_13 log factor  1.000000000000E-004   1.000000000000E-006   1.000000000000E-002  KGrp  1.000000000000E+000   0.000000000000E+000 
PMX1_14 log factor  1.000000000000E-004   1.000000000000E-006   1.000000000000E-002  KGrp  1.000000000000E+000   0.000000000000E+000 
PMX1_15 log factor  1.000000000000E-004   1.000000000000E-006   1.000000000000E-002  KGrp  1.000000000000E+000   0.000000000000E+000 
PMX1_16 log factor  1.000000000000E-004   1.000000000000E-006   1.000000000000E-002  KGrp  1.000000000000E+000   0.000000000000E+000 
PMX1_17 log factor  1.000000000000E-004   1.000000000000E-006   1.000000000000E-002  KGrp  1.000000000000E+000   0.000000000000E+000 
PMX1_18 log factor  1.000000000000E-004   1.000000000000E-006   1.000000000000E-002  KGrp  1.000000000000E+000   0.000000000000E+000 
PMX1_19 log factor  1.000000000000E-004   1.000000000000E-006   1.000000000000E-002  KGrp  1.000000000000E+000   0.000000000000E+000 
PMX1_20 log factor  1.000000000000E-004   1.000000000000E-006   1.000000000000E-002  KGrp  1.000000000000E+000   0.000000000000E+000 
PMX1_21 log factor  1.000000000000E-004   1.000000000000E-006   1.000000000000E-002  KGrp  1.000000000000E+000   0.000000000000E+000 
PMX1_22 log factor  1.000000000000E-004   1.000000000000E-006   1.000000000000E-002  KGrp  1.000000000000E+000   0.000000000000E+000 
PMX1_23 log factor  1.000000000000E-004   1.000000000000E-006   1.000000000000E-002  KGrp  1.000000000000E+000   0.000000000000E+000 
PMX1_24 log factor  1.000000000000E-004   1.000000000000E-006   1.000000000000E-002  KGrp  1.000000000000E+000   0.000000000000E+000 
PMX1_25 log factor  1.000000000000E-004   1.000000000000E-006   1.000000000000E-002  KGrp  1.000000000000E+000   0.000000000000E+000 
PMX1_26 log factor  1.000000000000E-004   1.000000000000E-006   1.000000000000E-002  KGrp  1.000000000000E+000   0.000000000000E+000 
PMX1_27 log factor  1.000000000000E-004   1.000000000000E-006   1.000000000000E-002  KGrp  1.000000000000E+000   0.000000000000E+000 
PMX1_28 log factor  1.000000000000E-004   1.000000000000E-006   1.000000000000E-002  KGrp  1.000000000000E+000   0.000000000000E+000 
PMX1_29 log factor  1.000000000000E-004   1.000000000000E-006   1.000000000000E-002  KGrp  1.000000000000E+000   0.000000000000E+000 
PMX1_30 log factor  1.000000000000E-004   1.000000000000E-006   1.000000000000E-002  KGrp  1.000000000000E+000   0.000000000000E+000 
PMX1_31 log factor  1.000000000000E-004   1.000000000000E-006   1.000000000000E-002  KGrp  1.000000000000E+000   0.000000000000E+000 
PMX1_32 log factor  1.000000000000E-004   1.000000000000E-006   1.000000000000E-002  KGrp  1.000000000000E+000   0.000000000000E+000 
PMX1_33 log factor  1.000000000000E-004   1.000000000000E-006   1.000000000000E-002  KGrp  1.000000000000E+000   0.000000000000E+000 
PMX1_34 log factor  1.000000000000E-004   1.000000000000E-006   1.000000000000E-002  KGrp  1.000000000000E+000   0.000000000000E+000 
PMX1_35 log factor  1.000000000000E-004   1.000000000000E-006   1.000000000000E-002  KGrp  1.000000000000E+000   0.000000000000E+000 
PMX1_36 log factor  1.000000000000E-004   1.000000000000E-006   1.000000000000E-002  KGrp  1.000000000000E+000   0.000000000000E+000 
PMX1_37 log factor  1.000000000000E-004   1.000000000000E-006   1.000000000000E-002  KGrp  1.000000000000E+000   0.000000000000E+000 
PMX1_38 log factor  1.000000000000E-004   1.000000000000E-006   1.000000000000E-002  KGrp  1.000000000000E+000   0.000000000000E+000 
PMX1_39 log factor  1.000000000000E-004   1.000000000000E-006   1.000000000000E-002  KGrp  1.000000000000E+000   0.000000000000E+000 
PMX1_40 log factor  1.000000000000E-004   1.000000000000E-006   1.000000000000E-002  KGrp  1.000000000000E+000   0.000000000000E+000 
PMX1_41 log factor  1.000000000000E-004   1.000000000000E-006   1.000000000000E-002  KGrp  1.000000000000E+000   0.000000000000E+000 
PMX1_42 log factor  1.000000000000E-004   1.000000000000E-006   1.000000000000E-002  KGrp  1.000000000000E+000   0.000000000000E+000 
PMX1_43 log factor  1.000000000000E-004   1.000000000000E-006   1.000000000000E-002  KGrp  1.000000000000E+000   0.000000000000E+000 
PMX1_44 log factor  1.000000000000E-004   1.000000000000E-006   1.000000000000E-002  KGrp  1.000000000000E+000   0.000000000000E+000 
PMX1_45 log factor  1.000000000000E-004   1.000000000000E-006   1.000000000000E-002  KGrp  1.000000000000E+000   0.000000000000E+000 
PMX1_46 log factor  1.000000000000E-004   1.000000000000E-006   1.000000000000E-002  KGrp  1.000000000000E+000   0.000000000000E+000 
PMX1_47 log factor  1.000000000000E-004   1.000000000000E-006   1.000000000000E-002  KGrp  1.000000000000E+000   0.000000000000E+000 
PMX1_48 log factor  1.000000000000E-004   1.000000000000E-006   1.000000000000E-002  KGrp  1.000000000000E+000   0.000000000000E+000 
PMX1_49 log factor  1.000000000000E-004   1.000000000000E-006   1.000000000000E-002  KGrp  1.000000000000E+000   0.000000000000E+000 
PMX1_50 log factor  1.000000000000E-004   1.000000000000E-006   1.000000000000E-002  KGrp  1.000000000000E+000   0.000000000000E+000 
PMX1_51 log factor  1.000000000000E-004   1.000000000000E-006   1.000000000000E-002  KGrp  1.000000000000E+000   0.000000000000E+000 
PMX1_52 log factor  1.000000000000E-004   1.000000000000E-006   1.000000000000E-002  KGrp  1.000000000000E+000   0.000000000000E+000 
PMX1_53 log factor  1.000000000000E-004   1.000000000000E-006   1.000000000000E-002  KGrp  1.000000000000E+000   0.000000000000E+000 
PMX1_54 log factor  1.000000000000E-004   1.000000000000E-006   1.000000000000E-002  KGrp  1.000000000000E+000   0.000000000000E+000 
PMX1_55 log factor  1.000000000000E-004   1.000000000000E-006   1.000000000000E-002  KGrp  1.000000000000E+000   0.000000000000E+000 
PMX1_56 log factor  1.000000000000E-004   1.000000000000E-006   1.000000000000E-002  KGrp  1.000000000000E+000   0.000000000000E+000 
PMN2_1 log factor  1.000000000000E-004   1.000000000000E-006   1.000000000000E-002  KGrp  1.000000000000E+000   0.000000000000E+000  # Parameters in the PMN2_ family are pilot point parameters related to K in layer      1 in data set Minimum_Hydraulic_Conductivity
PMN2_2 log factor  1.000000000000E-004   1.000000000000E-006   1.000000000000E-002  KGrp  1.000000000000E+000   0.000000000000E+000 
PMN2_3 log factor  1.000000000000E-004   1.000000000000E-006   1.000000000000E-002  KGrp  1.000000000000E+000   0.000000000000E+000 
PMN2_4 log factor  1.000000000000E-004   1.000000000000E-006   1.000000000000E-002  KGrp  1.000000000000E+000   0.000000000000E+000 
PMN2_5 log factor  1.000000000000E-004   1.000000000000E-006   1.000000000000E-002  KGrp  1.000000000000E+000   0.000000000000E+000 
PMN2_6 log factor  1.000000000000E-004   1.000000000000E-006   1.000000000000E-002  KGrp  1.000000000000E+000   0.000000000000E+000 
PMN2_7 log factor  1.000000000000E-004   1.000000000000E-006   1.000000000000E-002  KGrp  1.000000000000E+000   0.000000000000E+000 
PMN2_8 log factor  1.000000000000E-004   1.000000000000E-006   1.000000000000E-002  KGrp  1.000000000000E+000   0.000000000000E+000 
PMN2_9 log factor  1.000000000000E-004   1.000000000000E-006   1.000000000000E-002  KGrp  1.000000000000E+000   0.000000000000E+000 
PMN2_10 log factor  1.000000000000E-004   1.000000000000E-006   1.000000000000E-002  KGrp  1.000000000000E+000   0.000000000000E+000 
PMN2_11 log factor  1.000000000000E-004   1.000000000000E-006   1.000000000000E-002  KGrp  1.000000000000E+000   0.000000000000E+000 
PMN2_12 log factor  1.000000000000E-004   1.000000000000E-006   1.000000000000E-002  KGrp  1.000000000000E+000   0.000000000000E+000 
PMN2_13 log factor  1.000000000000E-004   1.000000000000E-006   1.000000000000E-002  KGrp  1.000000000000E+000   0.000000000000E+000 
PMN2_14 log factor  1.000000000000E-004   1.000000000000E-006   1.000000000000E-002  KGrp  1.000000000000E+000   0.000000000000E+000 
PMN2_15 log factor  1.000000000000E-004   1.000000000000E-006   1.000000000000E-002  KGrp  1.000000000000E+000   0.000000000000E+000 
PMN2_16 log factor  1.000000000000E-004   1.000000000000E-006   1.000000000000E-002  KGrp  1.000000000000E+000   0.000000000000E+000 
PMN2_17 log factor  1.000000000000E-004   1.000000000000E-006   1.000000000000E-002  KGrp  1.000000000000E+000   0.000000000000E+000 
PMN2_18 log factor  1.000000000000E-004   1.000000000000E-006   1.000000000000E-002  KGrp  1.000000000000E+000   0.000000000000E+000 
PMN2_19 log factor  1.000000000000E-004   1.000000000000E-006   1.000000000000E-002  KGrp  1.000000000000E+000   0.000000000000E+000 
PMN2_20 log factor  1.000000000000E-004   1.000000000000E-006   1.000000000000E-002  KGrp  1.000000000000E+000   0.000000000000E+000 
PMN2_21 log factor  1.000000000000E-004   1.000000000000E-006   1.000000000000E-002  KGrp  1.000000000000E+000   0.000000000000E+000 
PMN2_22 log factor  1.000000000000E-004   1.000000000000E-006   1.000000000000E-002  KGrp  1.000000000000E+000   0.000000000000E+000 
PMN2_23 log factor  1.000000000000E-004   1.000000000000E-006   1.000000000000E-002  KGrp  1.000000000000E+000   0.000000000000E+000 
PMN2_24 log factor  1.000000000000E-004   1.000000000000E-006   1.000000000000E-002  KGrp  1.000000000000E+000   0.000000000000E+000 
PMN2_25 log factor  1.000000000000E-004   1.000000000000E-006   1.000000000000E-002  KGrp  1.000000000000E+000   0.000000000000E+000 
PMN2_26 log factor  1.000000000000E-004   1.000000000000E-006   1.000000000000E-002  KGrp  1.000000000000E+000   0.000000000000E+000 
PMN2_27 log factor  1.000000000000E-004   1.000000000000E-006   1.000000000000E-002  KGrp  1.000000000000E+000   0.000000000000E+000 
PMN2_28 log factor  1.000000000000E-004   1.000000000000E-006   1.000000000000E-002  KGrp  1.000000000000E+000   0.000000000000E+000 
PMN2_29 log factor  1.000000000000E-004   1.000000000000E-006   1.000000000000E-002  KGrp  1.000000000000E+000   0.000000000000E+000 
PMN2_30 log factor  1.000000000000E-004   1.000000000000E-006   1.000000000000E-002  KGrp  1.000000000000E+000   0.000000000000E+000 
PMN2_31 log factor  1.000000000000E-004   1.000000000000E-006   1.000000000000E-002  KGrp  1.000000000000E+000   0.000000000000E+000 
PMN2_32 log factor  1.000000000000E-004   1.000000000000E-006   1.000000000000E-002  KGrp  1.000000000000E+000   0.000000000000E+000 
PMN2_33 log factor  1.000000000000E-004   1.000000000000E-006   1.000000000000E-002  KGrp  1.000000000000E+000   0.000000000000E+000 
PMN2_34 log factor  1.000000000000E-004   1.000000000000E-006   1.000000000000E-002  KGrp  1.000000000000E+000   0.000000000000E+000 
PMN2_35 log factor  1.000000000000E-004   1.000000000000E-006   1.000000000000E-002  KGrp  1.000000000000E+000   0.000000000000E+000 
PMN2_36 log factor  1.000000000000E-004   1.000000000000E-006   1.000000000000E-002  KGrp  1.000000000000E+000   0.000000000000E+000 
PMN2_37 log factor  1.000000000000E-004   1.000000000000E-006   1.000000000000E-002  KGrp  1.000000000000E+000   0.000000000000E+000 
PMN2_38 log factor  1.000000000000E-004   1.000000000000E-006   1.000000000000E-002  KGrp  1.000000000000E+000   0.000000000000E+000 
PMN2_39 log factor  1.000000000000E-004   1.000000000000E-006   1.000000000000E-002  KGrp  1.000000000000E+000   0.000000000000E+000 
PMN2_40 log factor  1.000000000000E-004   1.000000000000E-006   1.000000000000E-002  KGrp  1.000000000000E+000   0.000000000000E+000 
PMN2_41 log factor  1.000000000000E-004   1.000000000000E-006   1.000000000000E-002  KGrp  1.000000000000E+000   0.000000000000E+000 
PMN2_42 log factor  1.000000000000E-004   1.000000000000E-006   1.000000000000E-002  KGrp  1.000000000000E+000   0.000000000000E+000 
PMN2_43 log factor  1.000000000000E-004   1.000000000000E-006   1.000000000000E-002  KGrp  1.000000000000E+000   0.000000000000E+000 
PMN2_44 log factor  1.000000000000E-004   1.000000000000E-006   1.000000000000E-002  KGrp  1.000000000000E+000   0.000000000000E+000 
PMN2_45 log factor  1.000000000000E-004   1.000000000000E-006   1.000000000000E-002  KGrp  1.000000000000E+000   0.000000000000E+000 
PMN2_46 log factor  1.000000000000E-004   1.000000000000E-006   1.000000000000E-002  KGrp  1.000000000000E+000   0.000000000000E+000 
PMN2_47 log factor  1.000000000000E-004   1.000000000000E-006   1.000000000000E-002  KGrp  1.000000000000E+000   0.000000000000E+000 
PMN2_48 log factor  1.000000000000E-004   1.000000000000E-006   1.000000000000E-002  KGrp  1.000000000000E+000   0.000000000000E+000 
PMN2_49 log factor  1.000000000000E-004   1.000000000000E-006   1.000000000000E-002  KGrp  1.000000000000E+000   0.000000000000E+000 
PMN2_50 log factor  1.000000000000E-004   1.000000000000E-006   1.000000000000E-002  KGrp  1.000000000000E+000   0.000000000000E+000 
PMN2_51 log factor  1.000000000000E-004   1.000000000000E-006   1.000000000000E-002  KGrp  1.000000000000E+000   0.000000000000E+000 
PMN2_52 log factor  1.000000000000E-004   1.000000000000E-006   1.000000000000E-002  KGrp  1.000000000000E+000   0.000000000000E+000 
PMN2_53 log factor  1.000000000000E-004   1.000000000000E-006   1.000000000000E-002  KGrp  1.000000000000E+000   0.000000000000E+000 
PMN2_54 log factor  1.000000000000E-004   1.000000000000E-006   1.000000000000E-002  KGrp  1.000000000000E+000   0.000000000000E+000 
PMN2_55 log factor  1.000000000000E-004   1.000000000000E-006   1.000000000000E-002  KGrp  1.000000000000E+000   0.000000000000E+000 
PMN2_56 log factor  1.000000000000E-004   1.000000000000E-006   1.000000000000E-002  KGrp  1.000000000000E+000   0.000000000000E+000 

* observation groups
Heads
SPFlows
Comparisons
regul_Grp0
regul_Grp1

* observation data
Head_Obs1_P  6.900000000000E+001   1.000000000000E+000  Heads
Head_Obs2_P  6.390000000000E+001   1.000000000000E+000  Heads
Head_Obs3_P  5.570000000000E+001   1.000000000000E+000  Heads
Head_Obs4_P  5.190000000000E+001   1.000000000000E+000  Heads
Head_Obs5_P  5.010000000000E+001   1.000000000000E+000  Heads
Head_Obs6_P  3.950000000000E+001   1.000000000000E+000  Heads
Head_Obs7_P  1.420000000000E+001   1.000000000000E+000  Heads
Head_Obs8_P  2.760000000000E+001   1.000000000000E+000  Heads
SP_FlowObs -3.500000000000E-002   1.000000000000E+001  SPFlows
Gradient  2.250000000000E+001   3.000000000000E+000  Comparisons

* model command line
RunModel.Bat

* model input/output
RmaSutraNodeTest.ptf RmaSutraNodeTest.pval
RmaSutraNodeTest.15B.script.tpl RmaSutraNodeTest.15B.script
RmaSutraNodeTest.Maximum_Hydraulic_Conductivity.script.tpl RmaSutraNodeTest.Maximum_Hydraulic_Conductivity.script
RmaSutraNodeTest.Minimum_Hydraulic_Conductivity.script.tpl RmaSutraNodeTest.Minimum_Hydraulic_Conductivity.script
RmaSutraNodeTest.Maximum_Hydraulic_Conductivity.K.1.pp.tpl RmaSutraNodeTest.Maximum_Hydraulic_Conductivity.K.1.pp
RmaSutraNodeTest.Minimum_Hydraulic_Conductivity.K.1.pp.tpl RmaSutraNodeTest.Minimum_Hydraulic_Conductivity.K.1.pp
RmaSutraNodeTest.PestIns RmaSutraNodeTest.SutraValues

* prior information
 eq_1          1.0 * log(K) = 0       1     regul_Grp0
 eq_2          1.0 * Seepage = 1       1     regul_Grp1
 eq_3          1.0 * log(PMX1_1) = -4       1     regul_Grp0
 eq_4          1.0 * log(PMX1_2) = -4       1     regul_Grp0
 eq_5          1.0 * log(PMX1_3) = -4       1     regul_Grp0
 eq_6          1.0 * log(PMX1_4) = -4       1     regul_Grp0
 eq_7          1.0 * log(PMX1_5) = -4       1     regul_Grp0
 eq_8          1.0 * log(PMX1_6) = -4       1     regul_Grp0
 eq_9          1.0 * log(PMX1_7) = -4       1     regul_Grp0
 eq_10          1.0 * log(PMX1_8) = -4       1     regul_Grp0
 eq_11          1.0 * log(PMX1_9) = -4       1     regul_Grp0
 eq_12          1.0 * log(PMX1_10) = -4       1     regul_Grp0
 eq_13          1.0 * log(PMX1_11) = -4       1     regul_Grp0
 eq_14          1.0 * log(PMX1_12) = -4       1     regul_Grp0
 eq_15          1.0 * log(PMX1_13) = -4       1     regul_Grp0
 eq_16          1.0 * log(PMX1_14) = -4       1     regul_Grp0
 eq_17          1.0 * log(PMX1_15) = -4       1     regul_Grp0
 eq_18          1.0 * log(PMX1_16) = -4       1     regul_Grp0
 eq_19          1.0 * log(PMX1_17) = -4       1     regul_Grp0
 eq_20          1.0 * log(PMX1_18) = -4       1     regul_Grp0
 eq_21          1.0 * log(PMX1_19) = -4       1     regul_Grp0
 eq_22          1.0 * log(PMX1_20) = -4       1     regul_Grp0
 eq_23          1.0 * log(PMX1_21) = -4       1     regul_Grp0
 eq_24          1.0 * log(PMX1_22) = -4       1     regul_Grp0
 eq_25          1.0 * log(PMX1_23) = -4       1     regul_Grp0
 eq_26          1.0 * log(PMX1_24) = -4       1     regul_Grp0
 eq_27          1.0 * log(PMX1_25) = -4       1     regul_Grp0
 eq_28          1.0 * log(PMX1_26) = -4       1     regul_Grp0
 eq_29          1.0 * log(PMX1_27) = -4       1     regul_Grp0
 eq_30          1.0 * log(PMX1_28) = -4       1     regul_Grp0
 eq_31          1.0 * log(PMX1_29) = -4       1     regul_Grp0
 eq_32          1.0 * log(PMX1_30) = -4       1     regul_Grp0
 eq_33          1.0 * log(PMX1_31) = -4       1     regul_Grp0
 eq_34          1.0 * log(PMX1_32) = -4       1     regul_Grp0
 eq_35          1.0 * log(PMX1_33) = -4       1     regul_Grp0
 eq_36          1.0 * log(PMX1_34) = -4       1     regul_Grp0
 eq_37          1.0 * log(PMX1_35) = -4       1     regul_Grp0
 eq_38          1.0 * log(PMX1_36) = -4       1     regul_Grp0
 eq_39          1.0 * log(PMX1_37) = -4       1     regul_Grp0
 eq_40          1.0 * log(PMX1_38) = -4       1     regul_Grp0
 eq_41          1.0 * log(PMX1_39) = -4       1     regul_Grp0
 eq_42          1.0 * log(PMX1_40) = -4       1     regul_Grp0
 eq_43          1.0 * log(PMX1_41) = -4       1     regul_Grp0
 eq_44          1.0 * log(PMX1_42) = -4       1     regul_Grp0
 eq_45          1.0 * log(PMX1_43) = -4       1     regul_Grp0
 eq_46          1.0 * log(PMX1_44) = -4       1     regul_Grp0
 eq_47          1.0 * log(PMX1_45) = -4       1     regul_Grp0
 eq_48          1.0 * log(PMX1_46) = -4       1     regul_Grp0
 eq_49          1.0 * log(PMX1_47) = -4       1     regul_Grp0
 eq_50          1.0 * log(PMX1_48) = -4       1     regul_Grp0
 eq_51          1.0 * log(PMX1_49) = -4       1     regul_Grp0
 eq_52          1.0 * log(PMX1_50) = -4       1     regul_Grp0
 eq_53          1.0 * log(PMX1_51) = -4       1     regul_Grp0
 eq_54          1.0 * log(PMX1_52) = -4       1     regul_Grp0
 eq_55          1.0 * log(PMX1_53) = -4       1     regul_Grp0
 eq_56          1.0 * log(PMX1_54) = -4       1     regul_Grp0
 eq_57          1.0 * log(PMX1_55) = -4       1     regul_Grp0
 eq_58          1.0 * log(PMX1_56) = -4       1     regul_Grp0
 eq_59          1.0 * log(PMN2_1) = -4       1     regul_Grp0
 eq_60          1.0 * log(PMN2_2) = -4       1     regul_Grp0
 eq_61          1.0 * log(PMN2_3) = -4       1     regul_Grp0
 eq_62          1.0 * log(PMN2_4) = -4       1     regul_Grp0
 eq_63          1.0 * log(PMN2_5) = -4       1     regul_Grp0
 eq_64          1.0 * log(PMN2_6) = -4       1     regul_Grp0
 eq_65          1.0 * log(PMN2_7) = -4       1     regul_Grp0
 eq_66          1.0 * log(PMN2_8) = -4       1     regul_Grp0
 eq_67          1.0 * log(PMN2_9) = -4       1     regul_Grp0
 eq_68          1.0 * log(PMN2_10) = -4       1     regul_Grp0
 eq_69          1.0 * log(PMN2_11) = -4       1     regul_Grp0
 eq_70          1.0 * log(PMN2_12) = -4       1     regul_Grp0
 eq_71          1.0 * log(PMN2_13) = -4       1     regul_Grp0
 eq_72          1.0 * log(PMN2_14) = -4       1     regul_Grp0
 eq_73          1.0 * log(PMN2_15) = -4       1     regul_Grp0
 eq_74          1.0 * log(PMN2_16) = -4       1     regul_Grp0
 eq_75          1.0 * log(PMN2_17) = -4       1     regul_Grp0
 eq_76          1.0 * log(PMN2_18) = -4       1     regul_Grp0
 eq_77          1.0 * log(PMN2_19) = -4       1     regul_Grp0
 eq_78          1.0 * log(PMN2_20) = -4       1     regul_Grp0
 eq_79          1.0 * log(PMN2_21) = -4       1     regul_Grp0
 eq_80          1.0 * log(PMN2_22) = -4       1     regul_Grp0
 eq_81          1.0 * log(PMN2_23) = -4       1     regul_Grp0
 eq_82          1.0 * log(PMN2_24) = -4       1     regul_Grp0
 eq_83          1.0 * log(PMN2_25) = -4       1     regul_Grp0
 eq_84          1.0 * log(PMN2_26) = -4       1     regul_Grp0
 eq_85          1.0 * log(PMN2_27) = -4       1     regul_Grp0
 eq_86          1.0 * log(PMN2_28) = -4       1     regul_Grp0
 eq_87          1.0 * log(PMN2_29) = -4       1     regul_Grp0
 eq_88          1.0 * log(PMN2_30) = -4       1     regul_Grp0
 eq_89          1.0 * log(PMN2_31) = -4       1     regul_Grp0
 eq_90          1.0 * log(PMN2_32) = -4       1     regul_Grp0
 eq_91          1.0 * log(PMN2_33) = -4       1     regul_Grp0
 eq_92          1.0 * log(PMN2_34) = -4       1     regul_Grp0
 eq_93          1.0 * log(PMN2_35) = -4       1     regul_Grp0
 eq_94          1.0 * log(PMN2_36) = -4       1     regul_Grp0
 eq_95          1.0 * log(PMN2_37) = -4       1     regul_Grp0
 eq_96          1.0 * log(PMN2_38) = -4       1     regul_Grp0
 eq_97          1.0 * log(PMN2_39) = -4       1     regul_Grp0
 eq_98          1.0 * log(PMN2_40) = -4       1     regul_Grp0
 eq_99          1.0 * log(PMN2_41) = -4       1     regul_Grp0
 eq_100          1.0 * log(PMN2_42) = -4       1     regul_Grp0
 eq_101          1.0 * log(PMN2_43) = -4       1     regul_Grp0
 eq_102          1.0 * log(PMN2_44) = -4       1     regul_Grp0
 eq_103          1.0 * log(PMN2_45) = -4       1     regul_Grp0
 eq_104          1.0 * log(PMN2_46) = -4       1     regul_Grp0
 eq_105          1.0 * log(PMN2_47) = -4       1     regul_Grp0
 eq_106          1.0 * log(PMN2_48) = -4       1     regul_Grp0
 eq_107          1.0 * log(PMN2_49) = -4       1     regul_Grp0
 eq_108          1.0 * log(PMN2_50) = -4       1     regul_Grp0
 eq_109          1.0 * log(PMN2_51) = -4       1     regul_Grp0
 eq_110          1.0 * log(PMN2_52) = -4       1     regul_Grp0
 eq_111          1.0 * log(PMN2_53) = -4       1     regul_Grp0
 eq_112          1.0 * log(PMN2_54) = -4       1     regul_Grp0
 eq_113          1.0 * log(PMN2_55) = -4       1     regul_Grp0
 eq_114          1.0 * log(PMN2_56) = -4       1     regul_Grp0

