BEGIN OPTIONS
  LISTING Rocky2D_IrregularS4Interpolate.soeList
  VALUES Rocky2D_IrregularS4Interpolate.SutraValues
END OPTIONS

BEGIN OBSERVATION_FILES
END OBSERVATION_FILES

BEGIN IDENTIFIERS
END IDENTIFIERS

BEGIN DERIVED_OBSERVATIONS
END DERIVED_OBSERVATIONS
