pcf
* control data
restart regularisation # RSTFLE PESTMODE
   840     0     1  1134    21     1 # NPAR NOBS NPARGP, NPRIOR NOBSGP, MAXCOMPRDIM
    21     1 double nopoint noobsreref # NTPLFLE, NINSFLE, PRECIS, DPOINT, OBSREREF
  1.000000000000E+001   2.000000000000E+000   3.000000000000E-001   1.000000000000E-002     10     0 lamforgive noderforgive # RLAMBDA1, RLAMFAC, PHIRATSUF, PHIREDLAM, NUMLAM, JACUPDATE, LAMFORGIVE, DERFORGIVE
  3.000000000000E+000   3.000000000000E+000   1.000000000000E-003      0     1 # RELPARMAX, FACPARMAX, FACORIG, IBOUNDSTICK, UPVECBEND
  1.000000000000E-001      3  0.000000000000E+000  noaui nosenreuse boundscale # PHIREDSWH, NOPTSWITCH, SPLITSWH, DOAUI, DOSENREUSE, BOUNDSCALE
    50  5.000000000000E-003      4     4  5.000000000000E-003      4  0.000000000000E+000      1  0.000000000000E+000  # NOPTMAX, PHIREDSTP, NPHISTP, NPHINORED, RELPARSTP, NRELPAR, PHISTOPTHRESH, LASTRUN, PHIABANDON
     0     0     0     0 jcosave nojcosaveitn verboserec reisaveitn parsaveitn noparsaverun # ICOV, ICOR, IEIG, IRES, JCOSAVE, JCOSAVEITN, VERBOSEREC, RESSAVEITN, PARSAVEITN, PARSAVERUN

* singular value decomposition
     1 # SVDMODE
  1000  5.000000000000E-007  # MAXSING, EIGTHRESH
     0 # EIGWRITE

* lsqr
     0 # LSQRMODE
  1.000000000000E-004   1.000000000000E-004   1.000000000000E+003   3360 # LSQR_ATOL LSQR_BTOL LSQR_CONLIM LSQR_ITNLIM
     1 # LSQRWRITE

* parameter groups
D relative  1.000000000000E-002   0.000000000000E+000  switch  1.500000000000E+000  parabolic

* parameter data
# Parameters in the 1_ family are pilot point parameters related to Density in layer      1 in data set Nodal_Porosity
1_1 none relative  2.200000000000E-001   0.000000000000E+000   3.600000000000E+000  D  1.000000000000E+000   0.000000000000E+000 
1_2 none relative  2.200000000000E-001   0.000000000000E+000   3.600000000000E+000  D  1.000000000000E+000   0.000000000000E+000 
1_3 none relative  2.200000000000E-001   0.000000000000E+000   3.600000000000E+000  D  1.000000000000E+000   0.000000000000E+000 
1_4 none relative  2.200000000000E-001   0.000000000000E+000   3.600000000000E+000  D  1.000000000000E+000   0.000000000000E+000 
1_5 none relative  2.200000000000E-001   0.000000000000E+000   3.600000000000E+000  D  1.000000000000E+000   0.000000000000E+000 
1_6 none relative  2.200000000000E-001   0.000000000000E+000   3.600000000000E+000  D  1.000000000000E+000   0.000000000000E+000 
1_7 none relative  2.200000000000E-001   0.000000000000E+000   3.600000000000E+000  D  1.000000000000E+000   0.000000000000E+000 
1_8 none relative  2.200000000000E-001   0.000000000000E+000   3.600000000000E+000  D  1.000000000000E+000   0.000000000000E+000 
1_9 none relative  2.200000000000E-001   0.000000000000E+000   3.600000000000E+000  D  1.000000000000E+000   0.000000000000E+000 
1_10 none relative  2.200000000000E-001   0.000000000000E+000   3.600000000000E+000  D  1.000000000000E+000   0.000000000000E+000 
1_11 none relative  2.200000000000E-001   0.000000000000E+000   3.600000000000E+000  D  1.000000000000E+000   0.000000000000E+000 
1_12 none relative  2.200000000000E-001   0.000000000000E+000   3.600000000000E+000  D  1.000000000000E+000   0.000000000000E+000 
1_13 none relative  2.200000000000E-001   0.000000000000E+000   3.600000000000E+000  D  1.000000000000E+000   0.000000000000E+000 
1_14 none relative  2.200000000000E-001   0.000000000000E+000   3.600000000000E+000  D  1.000000000000E+000   0.000000000000E+000 
1_15 none relative  2.200000000000E-001   0.000000000000E+000   3.600000000000E+000  D  1.000000000000E+000   0.000000000000E+000 
1_16 none relative  2.200000000000E-001   0.000000000000E+000   3.600000000000E+000  D  1.000000000000E+000   0.000000000000E+000 
1_17 none relative  2.200000000000E-001   0.000000000000E+000   3.600000000000E+000  D  1.000000000000E+000   0.000000000000E+000 
1_18 none relative  2.200000000000E-001   0.000000000000E+000   3.600000000000E+000  D  1.000000000000E+000   0.000000000000E+000 
1_19 none relative  2.200000000000E-001   0.000000000000E+000   3.600000000000E+000  D  1.000000000000E+000   0.000000000000E+000 
1_20 none relative  2.200000000000E-001   0.000000000000E+000   3.600000000000E+000  D  1.000000000000E+000   0.000000000000E+000 
1_21 none relative  2.200000000000E-001   0.000000000000E+000   3.600000000000E+000  D  1.000000000000E+000   0.000000000000E+000 
1_22 none relative  2.200000000000E-001   0.000000000000E+000   3.600000000000E+000  D  1.000000000000E+000   0.000000000000E+000 
1_23 none relative  2.200000000000E-001   0.000000000000E+000   3.600000000000E+000  D  1.000000000000E+000   0.000000000000E+000 
1_24 none relative  2.200000000000E-001   0.000000000000E+000   3.600000000000E+000  D  1.000000000000E+000   0.000000000000E+000 
1_25 none relative  2.200000000000E-001   0.000000000000E+000   3.600000000000E+000  D  1.000000000000E+000   0.000000000000E+000 
1_26 none relative  2.200000000000E-001   0.000000000000E+000   3.600000000000E+000  D  1.000000000000E+000   0.000000000000E+000 
1_27 none relative  2.200000000000E-001   0.000000000000E+000   3.600000000000E+000  D  1.000000000000E+000   0.000000000000E+000 
1_28 none relative  2.200000000000E-001   0.000000000000E+000   3.600000000000E+000  D  1.000000000000E+000   0.000000000000E+000 
1_29 none relative  2.200000000000E-001   0.000000000000E+000   3.600000000000E+000  D  1.000000000000E+000   0.000000000000E+000 
1_30 none relative  2.200000000000E-001   0.000000000000E+000   3.600000000000E+000  D  1.000000000000E+000   0.000000000000E+000 
1_31 none relative  2.200000000000E-001   0.000000000000E+000   3.600000000000E+000  D  1.000000000000E+000   0.000000000000E+000 
1_32 none relative  2.200000000000E-001   0.000000000000E+000   3.600000000000E+000  D  1.000000000000E+000   0.000000000000E+000 
1_33 none relative  2.200000000000E-001   0.000000000000E+000   3.600000000000E+000  D  1.000000000000E+000   0.000000000000E+000 
1_34 none relative  2.200000000000E-001   0.000000000000E+000   3.600000000000E+000  D  1.000000000000E+000   0.000000000000E+000 
1_35 none relative  2.200000000000E-001   0.000000000000E+000   3.600000000000E+000  D  1.000000000000E+000   0.000000000000E+000 
1_36 none relative  2.200000000000E-001   0.000000000000E+000   3.600000000000E+000  D  1.000000000000E+000   0.000000000000E+000 
1_37 none relative  2.200000000000E-001   0.000000000000E+000   3.600000000000E+000  D  1.000000000000E+000   0.000000000000E+000 
1_38 none relative  2.200000000000E-001   0.000000000000E+000   3.600000000000E+000  D  1.000000000000E+000   0.000000000000E+000 
1_39 none relative  2.200000000000E-001   0.000000000000E+000   3.600000000000E+000  D  1.000000000000E+000   0.000000000000E+000 
1_40 none relative  2.200000000000E-001   0.000000000000E+000   3.600000000000E+000  D  1.000000000000E+000   0.000000000000E+000 
1_41 none relative  2.200000000000E-001   0.000000000000E+000   3.600000000000E+000  D  1.000000000000E+000   0.000000000000E+000 
1_42 none relative  2.200000000000E-001   0.000000000000E+000   3.600000000000E+000  D  1.000000000000E+000   0.000000000000E+000 
# Parameters in the 2_ family are pilot point parameters related to Density in layer      2 in data set Nodal_Porosity
2_1 none relative  2.200000000000E-001   0.000000000000E+000   3.600000000000E+000  D  1.000000000000E+000   0.000000000000E+000 
2_2 none relative  2.200000000000E-001   0.000000000000E+000   3.600000000000E+000  D  1.000000000000E+000   0.000000000000E+000 
2_3 none relative  2.200000000000E-001   0.000000000000E+000   3.600000000000E+000  D  1.000000000000E+000   0.000000000000E+000 
2_4 none relative  2.200000000000E-001   0.000000000000E+000   3.600000000000E+000  D  1.000000000000E+000   0.000000000000E+000 
2_5 none relative  2.200000000000E-001   0.000000000000E+000   3.600000000000E+000  D  1.000000000000E+000   0.000000000000E+000 
2_6 none relative  2.200000000000E-001   0.000000000000E+000   3.600000000000E+000  D  1.000000000000E+000   0.000000000000E+000 
2_7 none relative  2.200000000000E-001   0.000000000000E+000   3.600000000000E+000  D  1.000000000000E+000   0.000000000000E+000 
2_8 none relative  2.200000000000E-001   0.000000000000E+000   3.600000000000E+000  D  1.000000000000E+000   0.000000000000E+000 
2_9 none relative  2.200000000000E-001   0.000000000000E+000   3.600000000000E+000  D  1.000000000000E+000   0.000000000000E+000 
2_10 none relative  2.200000000000E-001   0.000000000000E+000   3.600000000000E+000  D  1.000000000000E+000   0.000000000000E+000 
2_11 none relative  2.200000000000E-001   0.000000000000E+000   3.600000000000E+000  D  1.000000000000E+000   0.000000000000E+000 
2_12 none relative  2.200000000000E-001   0.000000000000E+000   3.600000000000E+000  D  1.000000000000E+000   0.000000000000E+000 
2_13 none relative  2.200000000000E-001   0.000000000000E+000   3.600000000000E+000  D  1.000000000000E+000   0.000000000000E+000 
2_14 none relative  2.200000000000E-001   0.000000000000E+000   3.600000000000E+000  D  1.000000000000E+000   0.000000000000E+000 
2_15 none relative  2.200000000000E-001   0.000000000000E+000   3.600000000000E+000  D  1.000000000000E+000   0.000000000000E+000 
2_16 none relative  2.200000000000E-001   0.000000000000E+000   3.600000000000E+000  D  1.000000000000E+000   0.000000000000E+000 
2_17 none relative  2.200000000000E-001   0.000000000000E+000   3.600000000000E+000  D  1.000000000000E+000   0.000000000000E+000 
2_18 none relative  2.200000000000E-001   0.000000000000E+000   3.600000000000E+000  D  1.000000000000E+000   0.000000000000E+000 
2_19 none relative  2.200000000000E-001   0.000000000000E+000   3.600000000000E+000  D  1.000000000000E+000   0.000000000000E+000 
2_20 none relative  2.200000000000E-001   0.000000000000E+000   3.600000000000E+000  D  1.000000000000E+000   0.000000000000E+000 
2_21 none relative  2.200000000000E-001   0.000000000000E+000   3.600000000000E+000  D  1.000000000000E+000   0.000000000000E+000 
2_22 none relative  2.200000000000E-001   0.000000000000E+000   3.600000000000E+000  D  1.000000000000E+000   0.000000000000E+000 
2_23 none relative  2.200000000000E-001   0.000000000000E+000   3.600000000000E+000  D  1.000000000000E+000   0.000000000000E+000 
2_24 none relative  2.200000000000E-001   0.000000000000E+000   3.600000000000E+000  D  1.000000000000E+000   0.000000000000E+000 
2_25 none relative  2.200000000000E-001   0.000000000000E+000   3.600000000000E+000  D  1.000000000000E+000   0.000000000000E+000 
2_26 none relative  2.200000000000E-001   0.000000000000E+000   3.600000000000E+000  D  1.000000000000E+000   0.000000000000E+000 
2_27 none relative  2.200000000000E-001   0.000000000000E+000   3.600000000000E+000  D  1.000000000000E+000   0.000000000000E+000 
2_28 none relative  2.200000000000E-001   0.000000000000E+000   3.600000000000E+000  D  1.000000000000E+000   0.000000000000E+000 
2_29 none relative  2.200000000000E-001   0.000000000000E+000   3.600000000000E+000  D  1.000000000000E+000   0.000000000000E+000 
2_30 none relative  2.200000000000E-001   0.000000000000E+000   3.600000000000E+000  D  1.000000000000E+000   0.000000000000E+000 
2_31 none relative  2.200000000000E-001   0.000000000000E+000   3.600000000000E+000  D  1.000000000000E+000   0.000000000000E+000 
2_32 none relative  2.200000000000E-001   0.000000000000E+000   3.600000000000E+000  D  1.000000000000E+000   0.000000000000E+000 
2_33 none relative  2.200000000000E-001   0.000000000000E+000   3.600000000000E+000  D  1.000000000000E+000   0.000000000000E+000 
2_34 none relative  2.200000000000E-001   0.000000000000E+000   3.600000000000E+000  D  1.000000000000E+000   0.000000000000E+000 
2_35 none relative  2.200000000000E-001   0.000000000000E+000   3.600000000000E+000  D  1.000000000000E+000   0.000000000000E+000 
2_36 none relative  2.200000000000E-001   0.000000000000E+000   3.600000000000E+000  D  1.000000000000E+000   0.000000000000E+000 
2_37 none relative  2.200000000000E-001   0.000000000000E+000   3.600000000000E+000  D  1.000000000000E+000   0.000000000000E+000 
2_38 none relative  2.200000000000E-001   0.000000000000E+000   3.600000000000E+000  D  1.000000000000E+000   0.000000000000E+000 
2_39 none relative  2.200000000000E-001   0.000000000000E+000   3.600000000000E+000  D  1.000000000000E+000   0.000000000000E+000 
2_40 none relative  2.200000000000E-001   0.000000000000E+000   3.600000000000E+000  D  1.000000000000E+000   0.000000000000E+000 
2_41 none relative  2.200000000000E-001   0.000000000000E+000   3.600000000000E+000  D  1.000000000000E+000   0.000000000000E+000 
2_42 none relative  2.200000000000E-001   0.000000000000E+000   3.600000000000E+000  D  1.000000000000E+000   0.000000000000E+000 
# Parameters in the 3_ family are pilot point parameters related to Density in layer      3 in data set Nodal_Porosity
3_1 none relative  2.200000000000E-001   0.000000000000E+000   3.600000000000E+000  D  1.000000000000E+000   0.000000000000E+000 
3_2 none relative  2.200000000000E-001   0.000000000000E+000   3.600000000000E+000  D  1.000000000000E+000   0.000000000000E+000 
3_3 none relative  2.200000000000E-001   0.000000000000E+000   3.600000000000E+000  D  1.000000000000E+000   0.000000000000E+000 
3_4 none relative  2.200000000000E-001   0.000000000000E+000   3.600000000000E+000  D  1.000000000000E+000   0.000000000000E+000 
3_5 none relative  2.200000000000E-001   0.000000000000E+000   3.600000000000E+000  D  1.000000000000E+000   0.000000000000E+000 
3_6 none relative  2.200000000000E-001   0.000000000000E+000   3.600000000000E+000  D  1.000000000000E+000   0.000000000000E+000 
3_7 none relative  2.200000000000E-001   0.000000000000E+000   3.600000000000E+000  D  1.000000000000E+000   0.000000000000E+000 
3_8 none relative  2.200000000000E-001   0.000000000000E+000   3.600000000000E+000  D  1.000000000000E+000   0.000000000000E+000 
3_9 none relative  2.200000000000E-001   0.000000000000E+000   3.600000000000E+000  D  1.000000000000E+000   0.000000000000E+000 
3_10 none relative  2.200000000000E-001   0.000000000000E+000   3.600000000000E+000  D  1.000000000000E+000   0.000000000000E+000 
3_11 none relative  2.200000000000E-001   0.000000000000E+000   3.600000000000E+000  D  1.000000000000E+000   0.000000000000E+000 
3_12 none relative  2.200000000000E-001   0.000000000000E+000   3.600000000000E+000  D  1.000000000000E+000   0.000000000000E+000 
3_13 none relative  2.200000000000E-001   0.000000000000E+000   3.600000000000E+000  D  1.000000000000E+000   0.000000000000E+000 
3_14 none relative  2.200000000000E-001   0.000000000000E+000   3.600000000000E+000  D  1.000000000000E+000   0.000000000000E+000 
3_15 none relative  2.200000000000E-001   0.000000000000E+000   3.600000000000E+000  D  1.000000000000E+000   0.000000000000E+000 
3_16 none relative  2.200000000000E-001   0.000000000000E+000   3.600000000000E+000  D  1.000000000000E+000   0.000000000000E+000 
3_17 none relative  2.200000000000E-001   0.000000000000E+000   3.600000000000E+000  D  1.000000000000E+000   0.000000000000E+000 
3_18 none relative  2.200000000000E-001   0.000000000000E+000   3.600000000000E+000  D  1.000000000000E+000   0.000000000000E+000 
3_19 none relative  2.200000000000E-001   0.000000000000E+000   3.600000000000E+000  D  1.000000000000E+000   0.000000000000E+000 
3_20 none relative  2.200000000000E-001   0.000000000000E+000   3.600000000000E+000  D  1.000000000000E+000   0.000000000000E+000 
3_21 none relative  2.200000000000E-001   0.000000000000E+000   3.600000000000E+000  D  1.000000000000E+000   0.000000000000E+000 
3_22 none relative  2.200000000000E-001   0.000000000000E+000   3.600000000000E+000  D  1.000000000000E+000   0.000000000000E+000 
3_23 none relative  2.200000000000E-001   0.000000000000E+000   3.600000000000E+000  D  1.000000000000E+000   0.000000000000E+000 
3_24 none relative  2.200000000000E-001   0.000000000000E+000   3.600000000000E+000  D  1.000000000000E+000   0.000000000000E+000 
3_25 none relative  2.200000000000E-001   0.000000000000E+000   3.600000000000E+000  D  1.000000000000E+000   0.000000000000E+000 
3_26 none relative  2.200000000000E-001   0.000000000000E+000   3.600000000000E+000  D  1.000000000000E+000   0.000000000000E+000 
3_27 none relative  2.200000000000E-001   0.000000000000E+000   3.600000000000E+000  D  1.000000000000E+000   0.000000000000E+000 
3_28 none relative  2.200000000000E-001   0.000000000000E+000   3.600000000000E+000  D  1.000000000000E+000   0.000000000000E+000 
3_29 none relative  2.200000000000E-001   0.000000000000E+000   3.600000000000E+000  D  1.000000000000E+000   0.000000000000E+000 
3_30 none relative  2.200000000000E-001   0.000000000000E+000   3.600000000000E+000  D  1.000000000000E+000   0.000000000000E+000 
3_31 none relative  2.200000000000E-001   0.000000000000E+000   3.600000000000E+000  D  1.000000000000E+000   0.000000000000E+000 
3_32 none relative  2.200000000000E-001   0.000000000000E+000   3.600000000000E+000  D  1.000000000000E+000   0.000000000000E+000 
3_33 none relative  2.200000000000E-001   0.000000000000E+000   3.600000000000E+000  D  1.000000000000E+000   0.000000000000E+000 
3_34 none relative  2.200000000000E-001   0.000000000000E+000   3.600000000000E+000  D  1.000000000000E+000   0.000000000000E+000 
3_35 none relative  2.200000000000E-001   0.000000000000E+000   3.600000000000E+000  D  1.000000000000E+000   0.000000000000E+000 
3_36 none relative  2.200000000000E-001   0.000000000000E+000   3.600000000000E+000  D  1.000000000000E+000   0.000000000000E+000 
3_37 none relative  2.200000000000E-001   0.000000000000E+000   3.600000000000E+000  D  1.000000000000E+000   0.000000000000E+000 
3_38 none relative  2.200000000000E-001   0.000000000000E+000   3.600000000000E+000  D  1.000000000000E+000   0.000000000000E+000 
3_39 none relative  2.200000000000E-001   0.000000000000E+000   3.600000000000E+000  D  1.000000000000E+000   0.000000000000E+000 
3_40 none relative  2.200000000000E-001   0.000000000000E+000   3.600000000000E+000  D  1.000000000000E+000   0.000000000000E+000 
3_41 none relative  2.200000000000E-001   0.000000000000E+000   3.600000000000E+000  D  1.000000000000E+000   0.000000000000E+000 
3_42 none relative  2.200000000000E-001   0.000000000000E+000   3.600000000000E+000  D  1.000000000000E+000   0.000000000000E+000 
# Parameters in the 4_ family are pilot point parameters related to Density in layer      1 in data set Solid_Matrix_Compressibility
4_1 none relative  1.100000000000E-008   0.000000000000E+000   1.800000000000E-007  D  1.000000000000E+000   0.000000000000E+000 
4_2 none relative  1.100000000000E-008   0.000000000000E+000   1.800000000000E-007  D  1.000000000000E+000   0.000000000000E+000 
4_3 none relative  1.100000000000E-008   0.000000000000E+000   1.800000000000E-007  D  1.000000000000E+000   0.000000000000E+000 
4_4 none relative  1.100000000000E-008   0.000000000000E+000   1.800000000000E-007  D  1.000000000000E+000   0.000000000000E+000 
4_5 none relative  1.100000000000E-008   0.000000000000E+000   1.800000000000E-007  D  1.000000000000E+000   0.000000000000E+000 
4_6 none relative  1.100000000000E-008   0.000000000000E+000   1.800000000000E-007  D  1.000000000000E+000   0.000000000000E+000 
4_7 none relative  1.100000000000E-008   0.000000000000E+000   1.800000000000E-007  D  1.000000000000E+000   0.000000000000E+000 
4_8 none relative  1.100000000000E-008   0.000000000000E+000   1.800000000000E-007  D  1.000000000000E+000   0.000000000000E+000 
4_9 none relative  1.100000000000E-008   0.000000000000E+000   1.800000000000E-007  D  1.000000000000E+000   0.000000000000E+000 
4_10 none relative  1.100000000000E-008   0.000000000000E+000   1.800000000000E-007  D  1.000000000000E+000   0.000000000000E+000 
4_11 none relative  1.100000000000E-008   0.000000000000E+000   1.800000000000E-007  D  1.000000000000E+000   0.000000000000E+000 
4_12 none relative  1.100000000000E-008   0.000000000000E+000   1.800000000000E-007  D  1.000000000000E+000   0.000000000000E+000 
4_13 none relative  1.100000000000E-008   0.000000000000E+000   1.800000000000E-007  D  1.000000000000E+000   0.000000000000E+000 
4_14 none relative  1.100000000000E-008   0.000000000000E+000   1.800000000000E-007  D  1.000000000000E+000   0.000000000000E+000 
4_15 none relative  1.100000000000E-008   0.000000000000E+000   1.800000000000E-007  D  1.000000000000E+000   0.000000000000E+000 
4_16 none relative  1.100000000000E-008   0.000000000000E+000   1.800000000000E-007  D  1.000000000000E+000   0.000000000000E+000 
4_17 none relative  1.100000000000E-008   0.000000000000E+000   1.800000000000E-007  D  1.000000000000E+000   0.000000000000E+000 
4_18 none relative  1.100000000000E-008   0.000000000000E+000   1.800000000000E-007  D  1.000000000000E+000   0.000000000000E+000 
4_19 none relative  1.100000000000E-008   0.000000000000E+000   1.800000000000E-007  D  1.000000000000E+000   0.000000000000E+000 
4_20 none relative  1.100000000000E-008   0.000000000000E+000   1.800000000000E-007  D  1.000000000000E+000   0.000000000000E+000 
4_21 none relative  1.100000000000E-008   0.000000000000E+000   1.800000000000E-007  D  1.000000000000E+000   0.000000000000E+000 
4_22 none relative  1.100000000000E-008   0.000000000000E+000   1.800000000000E-007  D  1.000000000000E+000   0.000000000000E+000 
4_23 none relative  1.100000000000E-008   0.000000000000E+000   1.800000000000E-007  D  1.000000000000E+000   0.000000000000E+000 
4_24 none relative  1.100000000000E-008   0.000000000000E+000   1.800000000000E-007  D  1.000000000000E+000   0.000000000000E+000 
4_25 none relative  1.100000000000E-008   0.000000000000E+000   1.800000000000E-007  D  1.000000000000E+000   0.000000000000E+000 
4_26 none relative  1.100000000000E-008   0.000000000000E+000   1.800000000000E-007  D  1.000000000000E+000   0.000000000000E+000 
4_27 none relative  1.100000000000E-008   0.000000000000E+000   1.800000000000E-007  D  1.000000000000E+000   0.000000000000E+000 
4_28 none relative  1.100000000000E-008   0.000000000000E+000   1.800000000000E-007  D  1.000000000000E+000   0.000000000000E+000 
4_29 none relative  1.100000000000E-008   0.000000000000E+000   1.800000000000E-007  D  1.000000000000E+000   0.000000000000E+000 
4_30 none relative  1.100000000000E-008   0.000000000000E+000   1.800000000000E-007  D  1.000000000000E+000   0.000000000000E+000 
4_31 none relative  1.100000000000E-008   0.000000000000E+000   1.800000000000E-007  D  1.000000000000E+000   0.000000000000E+000 
4_32 none relative  1.100000000000E-008   0.000000000000E+000   1.800000000000E-007  D  1.000000000000E+000   0.000000000000E+000 
4_33 none relative  1.100000000000E-008   0.000000000000E+000   1.800000000000E-007  D  1.000000000000E+000   0.000000000000E+000 
4_34 none relative  1.100000000000E-008   0.000000000000E+000   1.800000000000E-007  D  1.000000000000E+000   0.000000000000E+000 
4_35 none relative  1.100000000000E-008   0.000000000000E+000   1.800000000000E-007  D  1.000000000000E+000   0.000000000000E+000 
4_36 none relative  1.100000000000E-008   0.000000000000E+000   1.800000000000E-007  D  1.000000000000E+000   0.000000000000E+000 
4_37 none relative  1.100000000000E-008   0.000000000000E+000   1.800000000000E-007  D  1.000000000000E+000   0.000000000000E+000 
4_38 none relative  1.100000000000E-008   0.000000000000E+000   1.800000000000E-007  D  1.000000000000E+000   0.000000000000E+000 
4_39 none relative  1.100000000000E-008   0.000000000000E+000   1.800000000000E-007  D  1.000000000000E+000   0.000000000000E+000 
4_40 none relative  1.100000000000E-008   0.000000000000E+000   1.800000000000E-007  D  1.000000000000E+000   0.000000000000E+000 
4_41 none relative  1.100000000000E-008   0.000000000000E+000   1.800000000000E-007  D  1.000000000000E+000   0.000000000000E+000 
4_42 none relative  1.100000000000E-008   0.000000000000E+000   1.800000000000E-007  D  1.000000000000E+000   0.000000000000E+000 
# Parameters in the 5_ family are pilot point parameters related to Density in layer      2 in data set Solid_Matrix_Compressibility
5_1 none relative  1.100000000000E-008   0.000000000000E+000   1.800000000000E-007  D  1.000000000000E+000   0.000000000000E+000 
5_2 none relative  1.100000000000E-008   0.000000000000E+000   1.800000000000E-007  D  1.000000000000E+000   0.000000000000E+000 
5_3 none relative  1.100000000000E-008   0.000000000000E+000   1.800000000000E-007  D  1.000000000000E+000   0.000000000000E+000 
5_4 none relative  1.100000000000E-008   0.000000000000E+000   1.800000000000E-007  D  1.000000000000E+000   0.000000000000E+000 
5_5 none relative  1.100000000000E-008   0.000000000000E+000   1.800000000000E-007  D  1.000000000000E+000   0.000000000000E+000 
5_6 none relative  1.100000000000E-008   0.000000000000E+000   1.800000000000E-007  D  1.000000000000E+000   0.000000000000E+000 
5_7 none relative  1.100000000000E-008   0.000000000000E+000   1.800000000000E-007  D  1.000000000000E+000   0.000000000000E+000 
5_8 none relative  1.100000000000E-008   0.000000000000E+000   1.800000000000E-007  D  1.000000000000E+000   0.000000000000E+000 
5_9 none relative  1.100000000000E-008   0.000000000000E+000   1.800000000000E-007  D  1.000000000000E+000   0.000000000000E+000 
5_10 none relative  1.100000000000E-008   0.000000000000E+000   1.800000000000E-007  D  1.000000000000E+000   0.000000000000E+000 
5_11 none relative  1.100000000000E-008   0.000000000000E+000   1.800000000000E-007  D  1.000000000000E+000   0.000000000000E+000 
5_12 none relative  1.100000000000E-008   0.000000000000E+000   1.800000000000E-007  D  1.000000000000E+000   0.000000000000E+000 
5_13 none relative  1.100000000000E-008   0.000000000000E+000   1.800000000000E-007  D  1.000000000000E+000   0.000000000000E+000 
5_14 none relative  1.100000000000E-008   0.000000000000E+000   1.800000000000E-007  D  1.000000000000E+000   0.000000000000E+000 
5_15 none relative  1.100000000000E-008   0.000000000000E+000   1.800000000000E-007  D  1.000000000000E+000   0.000000000000E+000 
5_16 none relative  1.100000000000E-008   0.000000000000E+000   1.800000000000E-007  D  1.000000000000E+000   0.000000000000E+000 
5_17 none relative  1.100000000000E-008   0.000000000000E+000   1.800000000000E-007  D  1.000000000000E+000   0.000000000000E+000 
5_18 none relative  1.100000000000E-008   0.000000000000E+000   1.800000000000E-007  D  1.000000000000E+000   0.000000000000E+000 
5_19 none relative  1.100000000000E-008   0.000000000000E+000   1.800000000000E-007  D  1.000000000000E+000   0.000000000000E+000 
5_20 none relative  1.100000000000E-008   0.000000000000E+000   1.800000000000E-007  D  1.000000000000E+000   0.000000000000E+000 
5_21 none relative  1.100000000000E-008   0.000000000000E+000   1.800000000000E-007  D  1.000000000000E+000   0.000000000000E+000 
5_22 none relative  1.100000000000E-008   0.000000000000E+000   1.800000000000E-007  D  1.000000000000E+000   0.000000000000E+000 
5_23 none relative  1.100000000000E-008   0.000000000000E+000   1.800000000000E-007  D  1.000000000000E+000   0.000000000000E+000 
5_24 none relative  1.100000000000E-008   0.000000000000E+000   1.800000000000E-007  D  1.000000000000E+000   0.000000000000E+000 
5_25 none relative  1.100000000000E-008   0.000000000000E+000   1.800000000000E-007  D  1.000000000000E+000   0.000000000000E+000 
5_26 none relative  1.100000000000E-008   0.000000000000E+000   1.800000000000E-007  D  1.000000000000E+000   0.000000000000E+000 
5_27 none relative  1.100000000000E-008   0.000000000000E+000   1.800000000000E-007  D  1.000000000000E+000   0.000000000000E+000 
5_28 none relative  1.100000000000E-008   0.000000000000E+000   1.800000000000E-007  D  1.000000000000E+000   0.000000000000E+000 
5_29 none relative  1.100000000000E-008   0.000000000000E+000   1.800000000000E-007  D  1.000000000000E+000   0.000000000000E+000 
5_30 none relative  1.100000000000E-008   0.000000000000E+000   1.800000000000E-007  D  1.000000000000E+000   0.000000000000E+000 
5_31 none relative  1.100000000000E-008   0.000000000000E+000   1.800000000000E-007  D  1.000000000000E+000   0.000000000000E+000 
5_32 none relative  1.100000000000E-008   0.000000000000E+000   1.800000000000E-007  D  1.000000000000E+000   0.000000000000E+000 
5_33 none relative  1.100000000000E-008   0.000000000000E+000   1.800000000000E-007  D  1.000000000000E+000   0.000000000000E+000 
5_34 none relative  1.100000000000E-008   0.000000000000E+000   1.800000000000E-007  D  1.000000000000E+000   0.000000000000E+000 
5_35 none relative  1.100000000000E-008   0.000000000000E+000   1.800000000000E-007  D  1.000000000000E+000   0.000000000000E+000 
5_36 none relative  1.100000000000E-008   0.000000000000E+000   1.800000000000E-007  D  1.000000000000E+000   0.000000000000E+000 
5_37 none relative  1.100000000000E-008   0.000000000000E+000   1.800000000000E-007  D  1.000000000000E+000   0.000000000000E+000 
5_38 none relative  1.100000000000E-008   0.000000000000E+000   1.800000000000E-007  D  1.000000000000E+000   0.000000000000E+000 
5_39 none relative  1.100000000000E-008   0.000000000000E+000   1.800000000000E-007  D  1.000000000000E+000   0.000000000000E+000 
5_40 none relative  1.100000000000E-008   0.000000000000E+000   1.800000000000E-007  D  1.000000000000E+000   0.000000000000E+000 
5_41 none relative  1.100000000000E-008   0.000000000000E+000   1.800000000000E-007  D  1.000000000000E+000   0.000000000000E+000 
5_42 none relative  1.100000000000E-008   0.000000000000E+000   1.800000000000E-007  D  1.000000000000E+000   0.000000000000E+000 
# Parameters in the 6_ family are pilot point parameters related to Density in layer      3 in data set Solid_Matrix_Compressibility
6_1 none relative  1.100000000000E-008   0.000000000000E+000   1.800000000000E-007  D  1.000000000000E+000   0.000000000000E+000 