BEGIN OPTIONS
  LISTING C:\ModelingTools\ModelMuse\PestTest\SutraGenBoundLakeTest.soeOut
  INSTRUCTION C:\ModelingTools\ModelMuse\PestTest\SutraGenBoundLakeTest.PestIns
END OPTIONS

BEGIN OBSERVATION_FILES
  FILENAME SutraGenBoundLakeTest.obc OBC
END OBSERVATION_FILES

BEGIN IDENTIFIERS
  ID Object7 P
    OBSNAME mytest_P  0.000000000000E+000  PRINT
END IDENTIFIERS

BEGIN DERIVED_OBSERVATIONS
END DERIVED_OBSERVATIONS
