BEGIN OPTIONS
  LISTING SutraTest4.soeOut
  INSTRUCTION SutraTest4.PestIns
  VALUES SutraTest4.SutraValues
END OPTIONS

BEGIN OBSERVATION_FILES
  FILENAME SutraTest4_Object19.obc OBC
END OBSERVATION_FILES

BEGIN IDENTIFIERS
  ID Object19 U
    OBSNAME test_U  1.000000000000E+000  PRINT
END IDENTIFIERS

BEGIN DERIVED_OBSERVATIONS
END DERIVED_OBSERVATIONS
