BEGIN OPTIONS
  LISTING C:\ModelingTools\ModelMuse\PestTest\SutraTest2.soeOut
  INSTRUCTION C:\ModelingTools\ModelMuse\PestTest\SutraTest2.PestIns
END OPTIONS

BEGIN OBSERVATION_FILES
  FILENAME SutraTest2_Object13.obc OBC
END OBSERVATION_FILES

BEGIN IDENTIFIERS
  ID Object13 P
    OBSNAME c1_P  1.000000000000E+000  PRINT
END IDENTIFIERS

BEGIN DERIVED_OBSERVATIONS
END DERIVED_OBSERVATIONS
