BEGIN OPTIONS
  LISTING SutraTest5.soeList
  VALUES SutraTest5.SutraValues
END OPTIONS

BEGIN OBSERVATION_FILES
  FILENAME SutraTest5.bcop BCOP
END OBSERVATION_FILES

BEGIN IDENTIFIERS
  ID 1 PF     7
    OBSNAME PF1_7_0  0.000000000000E+000 
  ID 1 PR     7
    OBSNAME PR1_7_0  0.000000000000E+000 
END IDENTIFIERS

BEGIN DERIVED_OBSERVATIONS
  OBSNAME PFlow1 PRINT
    FORMULA PF1_7_0
END DERIVED_OBSERVATIONS
