BEGIN OPTIONS
  LISTING SutraTest2a.soeOut
  INSTRUCTION SutraTest2a.PestIns
  VALUES SutraTest2a.SutraValues
END OPTIONS

BEGIN OBSERVATION_FILES
  FILENAME SutraTest2a_Object13.obc OBC
END OBSERVATION_FILES

BEGIN IDENTIFIERS
  ID Object13 U
    OBSNAME test_U  0.000000000000E+000  PRINT
END IDENTIFIERS

BEGIN DERIVED_OBSERVATIONS
END DERIVED_OBSERVATIONS
