# PCG: Preconditioned Conjugate Gradient package file created on 9/2/2021 by ModelMuse version 4.3.0.61.
# PCG for MODFLOW, generated by Flopy.
    50    30     1     0 # MXITER, ITER1, NPCOND, IHCOFADD
  9.999999700000E-006   9.999999700000E-006   1.000000000000E+000      1     0     3  1.000000000000E+000  # HCLOSE, RCLOSE, RELAX, NBPOL, IPRPCG, MUTPCG, DAMPPCG
