# LPF: Layer Property Flow package file created on 9/2/2021 by ModelMuse version 4.3.0.61.
# LPF for MODFLOW, generated by Flopy.
     9 -1.000000000000E+030      0 # ILPFCB, HDRY, NPLPF
     0 # LAYTYP
     0 # LAYAVG
    -1 # CHANI
     0 # LAYVKA
     0 # LAYWET
  OPEN/CLOSE arrays\SWI1.Kx_1.arrays 1.0 (Free)     12
CONSTANT     1.000000000000E+000  # HANI Layer 1 Layer 1
CONSTANT     2.000000000000E+000  # VKA Layer 1 Layer 1
