# WEL: Well package file created on 9/2/2021 by ModelMuse version 4.3.0.61.
# Well file for MODFLOW, generated by Flopy.
     1     9 AUXILIARY IFACE # DataSet 2: MXACTW IWELCB Option
     1     0 # Data Set 5: ITMP NP Stress period 1
     1     1     1  1.000000000000E+000      0 # Data Set 6: Layer Row Column Q IFACE Intersected by Imported_Wel_StressPeriod1_Layer1_1 with formula: ObjectImportedValuesR("WelPump1")
