BEGIN OPTIONS
  PRINT_INPUT
END OPTIONS

BEGIN TIMING
  TDIS6 'TvkTest.tdis'
END TIMING

BEGIN MODELS
  GWF6 'TvkTest.nam' 'MODFLOW'
END MODELS

BEGIN EXCHANGES
END EXCHANGES

BEGIN SOLUTIONGROUP     1
  MXITER     1
  IMS6 'TvkTest.ims' 'MODFLOW' 
END SOLUTIONGROUP

