BEGIN OPTIONS
  LISTING TvkTest.Mf6ObsExtInsLst
  INSTRUCTION TvkTest.PestIns
  VALUES TvkTest.Mf6Values
END OPTIONS

BEGIN OBSERVATION_FILES
FILENAME "TvkTest.chob_out_chd.csv" TEXT
END OBSERVATION_FILES

BEGIN IDENTIFIERS
  ID chd_chdobs
  OBSNAME chdin 2 PRINT

END IDENTIFIERS

