# Output Control file created on 9/28/2023 by ModelMuse version 5.1.1.39.
BEGIN OPTIONS
  BUDGET FILEOUT 'TvkTest.cbc'
  HEAD FILEOUT 'TvkTest.bhd'
END OPTIONS

BEGIN PERIOD      1
  SAVE HEAD ALL
  PRINT BUDGET ALL
  SAVE BUDGET ALL
END PERIOD 

BEGIN PERIOD      2
  SAVE HEAD ALL
  PRINT BUDGET ALL
  SAVE BUDGET ALL
END PERIOD 

