# TVS: Time-Varying Storage Package file created on 9/29/2023 by ModelMuse version 5.1.1.39.
# 
BEGIN OPTIONS
  DISABLE_STORAGE_CHANGE_INTEGRATION
    PRINT_INPUT
    TS6 FILEIN TvsTest.tvs.SSValues.ts
END OPTIONS

BEGIN PERIOD      1
END PERIOD 

BEGIN PERIOD      2
     1     2     2 SS SSTimes
     1     2     2 SY  2.201100000000E-001 
     1     3     2 SS SSTimes
     1     3     2 SY  2.201100000000E-001 
     1     4     2 SS SSTimes
     1     4     2 SY  2.201100000000E-001 
     1     5     2 SS SSTimes
     1     5     2 SY  2.201100000000E-001 
     1     6     2 SS SSTimes
     1     6     2 SY  2.201100000000E-001 
     1     7     2 SS SSTimes
     1     7     2 SY  2.201100000000E-001 
     1     8     2 SS SSTimes
     1     8     2 SY  2.201100000000E-001 
     1     9     2 SS SSTimes
     1     9     2 SY  2.201100000000E-001 
     1     2     3 SS SSTimes
     1     2     3 SY  2.201100000000E-001 
     1     3     3 SS SSTimes
     1     3     3 SY  2.201100000000E-001 
     1     4     3 SS SSTimes
     1     4     3 SY  2.201100000000E-001 
     1     5     3 SS SSTimes
     1     5     3 SY  2.201100000000E-001 
     1     6     3 SS SSTimes
     1     6     3 SY  2.201100000000E-001 
     1     7     3 SS SSTimes
     1     7     3 SY  2.201100000000E-001 
     1     8     3 SS SSTimes
     1     8     3 SY  2.201100000000E-001 
     1     9     3 SS SSTimes
     1     9     3 SY  2.201100000000E-001 
     1     2     4 SS SSTimes
     1     2     4 SY  2.201100000000E-001 
     1     3     4 SS SSTimes
     1     3     4 SY  2.201100000000E-001 
     1     4     4 SS SSTimes
     1     4     4 SY  2.201100000000E-001 
     1     5     4 SS SSTimes
     1     5     4 SY  2.201100000000E-001 
     1     6     4 SS SSTimes
     1     6     4 SY  2.201100000000E-001 
     1     7     4 SS SSTimes
     1     7     4 SY  2.201100000000E-001 
     1     8     4 SS SSTimes
     1     8     4 SY  2.201100000000E-001 
     1     9     4 SS SSTimes
     1     9     4 SY  2.201100000000E-001 
     1     2     5 SS SSTimes
     1     2     5 SY  2.201100000000E-001 
     1     3     5 SS SSTimes
     1     3     5 SY  2.201100000000E-001 
     1     4     5 SS SSTimes
     1     4     5 SY  2.201100000000E-001 
     1     5     5 SS SSTimes
     1     5     5 SY  2.201100000000E-001 
     1     6     5 SS SSTimes
     1     6     5 SY  2.201100000000E-001 
     1     7     5 SS SSTimes
     1     7     5 SY  2.201100000000E-001 
     1     8     5 SS SSTimes
     1     8     5 SY  2.201100000000E-001 
     1     9     5 SS SSTimes
     1     9     5 SY  2.201100000000E-001 
     1     2     6 SS SSTimes
     1     2     6 SY  2.201100000000E-001 
     1     3     6 SS SSTimes
     1     3     6 SY  2.201100000000E-001 
     1     4     6 SS SSTimes
     1     4     6 SY  2.201100000000E-001 
     1     5     6 SS SSTimes
     1     5     6 SY  2.201100000000E-001 
     1     6     6 SS SSTimes
     1     6     6 SY  2.201100000000E-001 
     1     7     6 SS SSTimes
     1     7     6 SY  2.201100000000E-001 
     1     8     6 SS SSTimes
     1     8     6 SY  2.201100000000E-001 
     1     9     6 SS SSTimes
     1     9     6 SY  2.201100000000E-001 
     1     2     7 SS SSTimes
     1     2     7 SY  2.201100000000E-001 
     1     3     7 SS SSTimes
     1     3     7 SY  2.201100000000E-001 
     1     4     7 SS SSTimes
     1     4     7 SY  2.201100000000E-001 
     1     5     7 SS SSTimes
     1     5     7 SY  2.201100000000E-001 
     1     6     7 SS SSTimes
     1     6     7 SY  2.201100000000E-001 
     1     7     7 SS SSTimes
     1     7     7 SY  2.201100000000E-001 
     1     8     7 SS SSTimes
     1     8     7 SY  2.201100000000E-001 
     1     9     7 SS SSTimes
     1     9     7 SY  2.201100000000E-001 
     1     2     8 SS SSTimes
     1     2     8 SY  2.201100000000E-001 
     1     3     8 SS SSTimes
     1     3     8 SY  2.201100000000E-001 
     1     4     8 SS SSTimes
     1     4     8 SY  2.201100000000E-001 
     1     5     8 SS SSTimes
     1     5     8 SY  2.201100000000E-001 
     1     6     8 SS SSTimes
     1     6     8 SY  2.201100000000E-001 
     1     7     8 SS SSTimes
     1     7     8 SY  2.201100000000E-001 
     1     8     8 SS SSTimes
     1     8     8 SY  2.201100000000E-001 
     1     9     8 SS SSTimes
     1     9     8 SY  2.201100000000E-001 
     1     2     9 SS SSTimes
     1     2     9 SY  2.201100000000E-001 
     1     3     9 SS SSTimes
     1     3     9 SY  2.201100000000E-001 
     1     4     9 SS SSTimes
     1     4     9 SY  2.201100000000E-001 
     1     5     9 SS SSTimes
     1     5     9 SY  2.201100000000E-001 
     1     6     9 SS SSTimes
     1     6     9 SY  2.201100000000E-001 
     1     7     9 SS SSTimes
     1     7     9 SY  2.201100000000E-001 
     1     8     9 SS SSTimes
     1     8     9 SY  2.201100000000E-001 
     1     9     9 SS SSTimes
     1     9     9 SY  2.201100000000E-001 
     2     2     2 SS SSTimes
     2     3     2 SS SSTimes
     2     4     2 SS SSTimes
     2     5     2 SS SSTimes
     2     6     2 SS SSTimes
     2     7     2 SS SSTimes
     2     8     2 SS SSTimes
     2     9     2 SS SSTimes
     2     2     3 SS SSTimes
     2     3     3 SS SSTimes
     2     4     3 SS SSTimes
     2     5     3 SS SSTimes
     2     6     3 SS SSTimes
     2     7     3 SS SSTimes
     2     8     3 SS SSTimes
     2     9     3 SS SSTimes
     2     2     4 SS SSTimes
     2     3     4 SS SSTimes
     2     4     4 SS SSTimes
     2     5     4 SS SSTimes
     2     6     4 SS SSTimes
     2     7     4 SS SSTimes
     2     8     4 SS SSTimes
     2     9     4 SS SSTimes
     2     2     5 SS SSTimes
     2     3     5 SS SSTimes
     2     4     5 SS SSTimes
     2     5     5 SS SSTimes
     2     6     5 SS SSTimes
     2     7     5 SS SSTimes
     2     8     5 SS SSTimes
     2     9     5 SS SSTimes
     2     2     6 SS SSTimes
     2     3     6 SS SSTimes
     2     4     6 SS SSTimes
     2     5     6 SS SSTimes
     2     6     6 SS SSTimes
     2     7     6 SS SSTimes
     2     8     6 SS SSTimes
     2     9     6 SS SSTimes
     2     2     7 SS SSTimes
     2     3     7 SS SSTimes
     2     4     7 SS SSTimes
     2     5     7 SS SSTimes
     2     6     7 SS SSTimes
     2     7     7 SS SSTimes
     2     8     7 SS SSTimes
     2     9     7 SS SSTimes
     2     2     8 SS SSTimes
     2     3     8 SS SSTimes
     2     4     8 SS SSTimes
     2     5     8 SS SSTimes
     2     6     8 SS SSTimes
     2     7     8 SS SSTimes
     2     8     8 SS SSTimes
     2     9     8 SS SSTimes
     2     2     9 SS SSTimes
     2     3     9 SS SSTimes
     2     4     9 SS SSTimes
     2     5     9 SS SSTimes
     2     6     9 SS SSTimes
     2     7     9 SS SSTimes
     2     8     9 SS SSTimes
     2     9     9 SS SSTimes
     3     2     2 SS SSTimes
     3     3     2 SS SSTimes
     3     4     2 SS SSTimes
     3     5     2 SS SSTimes
     3     6     2 SS SSTimes
     3     7     2 SS SSTimes
     3     8     2 SS SSTimes
     3     9     2 SS SSTimes
     3     2     3 SS SSTimes
     3     3     3 SS SSTimes
     3     4     3 SS SSTimes
     3     5     3 SS SSTimes
     3     6     3 SS SSTimes
     3     7     3 SS SSTimes
     3     8     3 SS SSTimes
     3     9     3 SS SSTimes
     3     2     4 SS SSTimes
     3     3     4 SS SSTimes
     3     4     4 SS SSTimes
     3     5     4 SS SSTimes
     3     6     4 SS SSTimes
     3     7     4 SS SSTimes
     3     8     4 SS SSTimes
     3     9     4 SS SSTimes
     3     2     5 SS SSTimes
     3     3     5 SS SSTimes
     3     4     5 SS SSTimes
     3     5     5 SS SSTimes
     3     6     5 SS SSTimes
     3     7     5 SS SSTimes
     3     8     5 SS SSTimes
     3     9     5 SS SSTimes
     3     2     6 SS SSTimes
     3     3     6 SS SSTimes
     3     4     6 SS SSTimes
     3     5     6 SS SSTimes
     3     6     6 SS SSTimes
     3     7     6 SS SSTimes
     3     8     6 SS SSTimes
     3     9     6 SS SSTimes
     3     2     7 SS SSTimes
     3     3     7 SS SSTimes
     3     4     7 SS SSTimes
     3     5     7 SS SSTimes
     3     6     7 SS SSTimes
     3     7     7 SS SSTimes
     3     8     7 SS SSTimes
     3     9     7 SS SSTimes
     3     2     8 SS SSTimes
     3     3     8 SS SSTimes
     3     4     8 SS SSTimes
     3     5     8 SS SSTimes
     3     6     8 SS SSTimes
     3     7     8 SS SSTimes
     3     8     8 SS SSTimes
     3     9     8 SS SSTimes
     3     2     9 SS SSTimes
     3     3     9 SS SSTimes
     3     4     9 SS SSTimes
     3     5     9 SS SSTimes
     3     6     9 SS SSTimes
     3     7     9 SS SSTimes
     3     8     9 SS SSTimes
     3     9     9 SS SSTimes
END PERIOD 

