BEGIN OPTIONS
  LISTING TvsTest.Mf6ObsExtInsLst
  VALUES TvsTest.Mf6Values
END OPTIONS

BEGIN OBSERVATION_FILES
FILENAME "TvsTest.chob_out_chd.csv" TEXT
END OBSERVATION_FILES

BEGIN IDENTIFIERS
  ID chd_chdobs
  OBSNAME chdin 2 PRINT

END IDENTIFIERS

