# TDIS file created on 9/29/2023 by ModelMuse version 5.1.1.39.

BEGIN OPTIONS
  TIME_UNITS seconds
END OPTIONS

BEGIN DIMENSIONS
  NPER     2
END DIMENSIONS

BEGIN PERIODDATA
    1.000000000000E+000      1  1.000000000000E+000  # perlen nstp tsmult, Stress period      1 Time = -1.000000000000E+000  -  0.000000000000E+000 
    1.000000000000E+004    100  1.000000000000E+000  # perlen nstp tsmult, Stress period      2 Time =  0.000000000000E+000  -  1.000000000000E+004 
END PERIODDATA
