BEGIN TIMING
  TDIS6 'TvsTest.tdis'
END TIMING

BEGIN MODELS
  GWF6 'TvsTest.nam' 'MODFLOW'
END MODELS

BEGIN EXCHANGES
END EXCHANGES

BEGIN SOLUTIONGROUP     1
  MXITER     1
  IMS6 'TvsTest.ims' 'MODFLOW' 
END SOLUTIONGROUP

