xul  0.000000000000E+000 
yul  0.000000000000E+000 
rotation  0.000000000000E+000 
length_units meters
time_units seconds
start_date 6/1/2021
start_time 0:0:0
model MODFLOW-2005
epsg N/A
