xul  0.000000000000E+000 
yul  0.000000000000E+000 
rotation  2.000000000000E+001 
length_units meters
time_units seconds
start_date 12/30/1899
start_time 0:0:0
model MODFLOW-2005
epsg 
