@[MODPATH 5.0]
* ENTER THE NAME FILE:
@RESPONSE:
rma.mpn
* DO YOU WANT TO STOP COMPUTING PATHS AFTER A SPECIFIED LENGTH OF TIME ?
@RESPONSE:
N
* SELECT THE OUTPUT MODE:
*     1 = ENDPOINTS
*     2 = PATHLINE
*     3 = TIME SERIES
@RESPONSE:
     2
* DO YOU WANT TO COMPUTE LOCATIONS AT SPECIFIC POINTS IN TIME?
@RESPONSE:
N
* HOW ARE STARTING LOCATIONS TO BE ENTERED?
*     1 = FROM AN EXISTING DATA FILE
*     2 = ARRAYS OF PARTICLES WILL BE GENERATED INTERNALLY
@RESPONSE:
     1
* IN WHICH DIRECTION SHOULD PARTICLES BE TRACKED?
*     1 = FORWARD IN THE DIRECTION OF FLOW
*     2 = BACKWARDS TOWARD RECHARGE LOCATIONS
@RESPONSE:
     1
* HOW SHOULD PARTICLES BE TREATED WHEN THEY ENTER CELLS WITH INTERNAL SINKS ?
*     1 = PASS THROUGH WEAK SINK CELLS
*     2 = STOP AT WEAK SINK CELLS
*     3 = STOP AT WEAK SINK CELLS THAT EXCEED A SPECIFIED STRENGTH
@RESPONSE:
     1
* DO YOU WANT TO STOP PARTICLES WHENEVER THEY ENTER ONE SPECIFIC ZONE ?
@RESPONSE:
N
* DO YOU WANT TO COMPUTE VOLUMETRIC BUDGETS FOR ALL CELLS ?
@RESPONSE:
N
*  DO YOU WANT TO CHECK DATA CELL BY CELL ?
@RESPONSE:
N
* SUMMARIZE FINAL STATUS OF PARTICLES IN SUMMARY.PTH FILE ?
@RESPONSE:
N
