@ [ MODPATH 5.0 (TREF=   0.000000E+00 ) ]
      1  2.80571E+03  4.16855E+03  5.00000E-01  4.97007E+01  0.00000E+00   29   13    1       1
      1  2.79572E+03  4.16605E+03  5.00000E-01  4.97007E+01  6.94248E+05   28   13    1       1
      1  2.69588E+03  4.11926E+03  5.00000E-01  4.96002E+01  9.85966E+06   27   13    1       1
      1  2.69442E+03  4.11833E+03  5.00000E-01  4.95024E+01  1.00544E+07   27   14    1       1
      1  2.60769E+03  4.01788E+03  5.00000E-01  4.82826E+01  2.89183E+07   27   15    1       1
      1  2.59603E+03  3.99506E+03  5.00000E-01  4.70671E+01  3.27666E+07   26   15    1       1
      1  2.55200E+03  3.91744E+03  5.00000E-01  4.69534E+01  4.77797E+07   26   16    1       1
      1  2.51187E+03  3.81699E+03  5.00000E-01  4.57332E+01  6.64494E+07   26   17    1       1
      1  2.49618E+03  3.76554E+03  5.00000E-01  4.45185E+01  7.59105E+07   25   17    1       1
      1  2.48013E+03  3.71654E+03  5.00000E-01  4.43879E+01  8.56236E+07   25   18    1       1
      1  2.45474E+03  3.61609E+03  5.00000E-01  4.31693E+01  1.05459E+08   25   19    1       1
      1  2.43561E+03  3.51565E+03  5.00000E-01  4.19574E+01  1.25352E+08   25   20    1       1
      1  2.42274E+03  3.41520E+03  5.00000E-01  4.07529E+01  1.45444E+08   25   21    1       1
      1  2.41757E+03  3.31475E+03  5.00000E-01  3.95564E+01  1.65883E+08   25   22    1       1
      1  2.42395E+03  3.21431E+03  5.00000E-01  3.83685E+01  1.86854E+08   25   23    1       1
      1  2.45074E+03  3.11386E+03  5.00000E-01  3.71898E+01  2.08406E+08   25   24    1       1
      1  2.49618E+03  3.03778E+03  5.00000E-01  3.60207E+01  2.24442E+08   26   24    1       1
      1  2.50553E+03  3.01341E+03  5.00000E-01  3.62307E+01  2.27909E+08   26   25    1       1
      1  2.55226E+03  2.91296E+03  5.00000E-01  3.50846E+01  2.39683E+08   26   26    1       1
      1  2.55651E+03  2.81252E+03  5.00000E-01  3.39493E+01  2.50035E+08   26   27    1       1
      1  2.55749E+03  2.71207E+03  5.00000E-01  3.28255E+01  2.60862E+08   26   28    1       1
      1  2.55501E+03  2.61162E+03  5.00000E-01  3.17134E+01  2.71552E+08   26   29    1       1
      1  2.51518E+03  2.51118E+03  5.00000E-01  3.06135E+01  2.83850E+08   26   30    1       1
      1  2.49618E+03  2.43615E+03  5.00000E-01  2.95262E+01  2.95043E+08   25   30    1       1
      1  2.48890E+03  2.41073E+03  5.00000E-01  2.92365E+01  2.99373E+08   25   31    1       1
      1  2.45815E+03  2.31028E+03  5.00000E-01  2.81483E+01  3.17554E+08   25   32    1       1
      1  2.45167E+03  2.20984E+03  5.00000E-01  2.70733E+01  3.36910E+08   25   33    1       1
      1  2.46819E+03  2.10939E+03  5.00000E-01  2.60120E+01  3.52256E+08   25   34    1       1
      1  2.46129E+03  2.00894E+03  5.00000E-01  2.49650E+01  3.64412E+08   25   35    1       1
      1  2.40772E+03  1.90849E+03  5.00000E-01  2.39328E+01  3.77949E+08   25   36    1       1
      1  2.39633E+03  1.88833E+03  5.00000E-01  2.29159E+01  3.81208E+08   24   36    1       1
      1  2.33470E+03  1.80805E+03  5.00000E-01  2.25539E+01  3.98126E+08   24   37    1       1
      1  2.29649E+03  1.75138E+03  5.00000E-01  2.15399E+01  4.10606E+08   23   37    1       1
      1  2.25803E+03  1.70760E+03  5.00000E-01  2.11773E+01  4.22700E+08   23   38    1       1
      1  2.19958E+03  1.60715E+03  5.00000E-01  2.01686E+01  4.50002E+08   23   39    1       1
      1  2.19664E+03  1.59961E+03  5.00000E-01  1.91782E+01  4.51974E+08   22   39    1       1
      1  2.16136E+03  1.50671E+03  5.00000E-01  1.88098E+01  4.77830E+08   22   40    1       1
      1  2.13646E+03  1.40626E+03  5.00000E-01  1.78303E+01  5.02153E+08   22   41    1       1
      1  2.11657E+03  1.30581E+03  5.00000E-01  1.68727E+01  5.24352E+08   22   42    1       1
      1  2.09972E+03  1.20536E+03  5.00000E-01  1.59386E+01  5.45166E+08   22   43    1       1
      1  2.09679E+03  1.18379E+03  5.00000E-01  1.50302E+01  5.49507E+08   21   43    1       1
      1  2.08589E+03  1.10492E+03  5.00000E-01  1.46763E+01  5.65725E+08   21   44    1       1
      1  2.07512E+03  1.00447E+03  5.00000E-01  1.38000E+01  5.86882E+08   21   45    1       1
      1  2.05573E+03  9.04024E+02  5.00000E-01  1.28759E+01  6.08695E+08   21   46    1       1
      1  2.03031E+03  8.03577E+02  5.00000E-01  1.19351E+01  6.30541E+08   21   47    1       1
      1  2.00097E+03  7.03130E+02  5.00000E-01  1.10261E+01  6.52187E+08   21   48    1       1
      1  1.99695E+03  6.90776E+02  5.00000E-01  1.01739E+01  6.54832E+08   20   48    1       1
      1  1.96948E+03  6.02682E+02  5.00000E-01  9.55459E+00  6.72963E+08   20   49    1       1
      1  1.93527E+03  5.02235E+02  5.00000E-01  8.79236E+00  6.93497E+08   20   50    1       1
      1  1.89817E+03  4.01788E+02  5.00000E-01  8.11097E+00  7.13898E+08   20   51    1       1
      1  1.89710E+03  3.99186E+02  5.00000E-01  7.51617E+00  7.14432E+08   19   51    1       1
      1  1.79725E+03  3.09035E+02  5.00000E-01  6.96267E+00  7.64245E+08   18   51    1       1
      1  1.69740E+03  3.01603E+02  5.00000E-01  6.42265E+00  8.27488E+08   17   51    1       1
      1  1.59756E+03  3.01361E+02  5.00000E-01  5.90339E+00  8.79537E+08   16   51    1       1
      1  1.49771E+03  3.01343E+02  5.00000E-01  5.41959E+00  9.20714E+08   15   51    1       1
      1  1.39786E+03  3.01341E+02  5.00000E-01  4.99319E+00  9.75270E+08   14   51    1       1
      1  1.39786E+03  3.01341E+02  5.00000E-01  4.61358E+00  9.75271E+08   14   52    1       1
      1  1.29801E+03  2.00901E+02  5.00000E-01  4.37441E+00  1.91775E+09   13   52    1       1
      1  1.19817E+03  2.00895E+02  5.00000E-01  3.83451E+00  1.97556E+09   12   52    1       1
      1  1.09832E+03  2.00894E+02  5.00000E-01  3.37232E+00  2.02432E+09   11   52    1       1
      1  9.98473E+02  2.00894E+02  5.00000E-01  3.04604E+00  2.07309E+09   10   52    1       1
      1  8.98626E+02  2.00995E+02  5.00000E-01  2.74195E+00  2.13525E+09    9   52    1       1
      1  8.98504E+02  2.00894E+02  5.00000E-01  2.44369E+00  2.13535E+09    9   53    1       1
      1  7.98778E+02  1.02944E+02  5.00000E-01  1.98322E+00  2.50004E+09    8   53    1       1
      1  6.98931E+02  1.00987E+02  5.00000E-01  1.49764E+00  2.55149E+09    7   53    1       1
      1  5.99084E+02  1.00503E+02  5.00000E-01  1.11937E+00  2.61159E+09    6   53    1       1
      1  4.99236E+02  1.00457E+02  5.00000E-01  7.51559E-01  2.66308E+09    5   53    1       1
      1  3.99389E+02  1.00449E+02  5.00000E-01  3.63577E-01  2.70572E+09    4   53    1       1
      1  2.99542E+02  1.00447E+02  5.00000E-01 -1.15411E-02  2.75554E+09    3   53    1       1
      1  1.99695E+02  1.00447E+02  5.00000E-01 -3.86229E-01  2.80537E+09    2   53    1       1
      1  9.98473E+01  1.00447E+02  5.00000E-01 -7.58625E-01  2.85708E+09    1   53    1       1
      1  9.98473E+01  1.00447E+02  5.00000E-01 -1.12820E+00  2.85708E+09    1   54    1       1
      2  2.82568E+03  4.16855E+03  5.00000E-01  4.97007E+01  0.00000E+00   29   13    1       1
      2  2.79572E+03  4.15785E+03  5.00000E-01  4.97007E+01  2.34995E+06   28   13    1       1
      2  2.71223E+03  4.11833E+03  5.00000E-01  4.96002E+01  9.50412E+06   28   14    1       1
      2  2.69588E+03  4.09541E+03  5.00000E-01  4.83895E+01  1.26686E+07   27   14    1       1
      2  2.62872E+03  4.01788E+03  5.00000E-01  4.82826E+01  2.68650E+07   27   15    1       1
      2  2.59603E+03  3.95392E+03  5.00000E-01  4.70671E+01  3.75760E+07   26   15    1       1
      2  2.57534E+03  3.91744E+03  5.00000E-01  4.69534E+01  4.45227E+07   26   16    1       1
      2  2.53470E+03  3.81699E+03  5.00000E-01  4.57332E+01  6.31924E+07   26   17    1       1
      2  2.50408E+03  3.71654E+03  5.00000E-01  4.45185E+01  8.16654E+07   26   18    1       1
      2  2.49618E+03  3.68302E+03  5.00000E-01  4.33102E+01  8.78392E+07   25   18    1       1
      2  2.47925E+03  3.61609E+03  5.00000E-01  4.31693E+01  1.01054E+08   25   19    1       1
      2  2.46029E+03  3.51565E+03  5.00000E-01  4.19574E+01  1.20946E+08   25   20    1       1
      2  2.44775E+03  3.41520E+03  5.00000E-01  4.07529E+01  1.41038E+08   25   21    1       1
      2  2.44311E+03  3.31475E+03  5.00000E-01  3.95564E+01  1.61478E+08   25   22    1       1
      2  2.45028E+03  3.21431E+03  5.00000E-01  3.83685E+01  1.82449E+08   25   23    1       1
      2  2.47771E+03  3.11386E+03  5.00000E-01  3.71898E+01  2.04001E+08   25   24    1       1
      2  2.49618E+03  3.08294E+03  5.00000E-01  3.60207E+01  2.10634E+08   26   24    1       1
      2  2.52286E+03  3.01341E+03  5.00000E-01  3.62307E+01  2.20909E+08   26   25    1       1
      2  2.56460E+03  2.91296E+03  5.00000E-01  3.50846E+01  2.32682E+08   26   26    1       1
      2  2.56978E+03  2.81252E+03  5.00000E-01  3.39493E+01  2.43034E+08   26   27    1       1
      2  2.57099E+03  2.71207E+03  5.00000E-01  3.28255E+01  2.53861E+08   26   28    1       1
      2  2.56796E+03  2.61162E+03  5.00000E-01  3.17134E+01  2.64552E+08   26   29    1       1
      2  2.53321E+03  2.51118E+03  5.00000E-01  3.06135E+01  2.76850E+08   26   30    1       1
      2  2.50867E+03  2.41073E+03  5.00000E-01  2.95262E+01  2.91981E+08   26   31    1       1
      2  2.49618E+03  2.35560E+03  5.00000E-01  2.84518E+01  3.00781E+08   25   31    1       1
      2  2.48304E+03  2.31028E+03  5.00000E-01  2.81483E+01  3.09435E+08   25   32    1       1
      2  2.47471E+03  2.20984E+03  5.00000E-01  2.70733E+01  3.28791E+08   25   33    1       1
      2  2.48401E+03  2.10939E+03  5.00000E-01  2.60120E+01  3.44137E+08   25   34    1       1
      2  2.47558E+03  2.00894E+03  5.00000E-01  2.49650E+01  3.56293E+08   25   35    1       1
      2  2.42749E+03  1.90849E+03  5.00000E-01  2.39328E+01  3.69830E+08   25   36    1       1
      2  2.39633E+03  1.85332E+03  5.00000E-01  2.29159E+01  3.78998E+08   24   36    1       1
      2  2.36158E+03  1.80805E+03  5.00000E-01  2.25539E+01  3.88648E+08   24   37    1       1
      2  2.29649E+03  1.71152E+03  5.00000E-01  2.15399E+01  4.10177E+08   23   37    1       1
      2  2.29304E+03  1.70760E+03  5.00000E-01  2.11773E+01  4.11280E+08   23   38    1       1
      2  2.23215E+03  1.60715E+03  5.00000E-01  2.01686E+01  4.38582E+08   23   39    1       1
      2  2.19664E+03  1.51592E+03  5.00000E-01  1.91782E+01  4.61589E+08   22   39    1       1
      2  2.19314E+03  1.50671E+03  5.00000E-01  1.88098E+01  4.63964E+08   22   40    1       1
      2  2.16496E+03  1.40626E+03  5.00000E-01  1.78303E+01  4.88287E+08   22   41    1       1
      2  2.14303E+03  1.30581E+03  5.00000E-01  1.68727E+01  5.10486E+08   22   42    1       1
      2  2.12477E+03  1.20536E+03  5.00000E-01  1.59386E+01  5.31300E+08   22   43    1       1
      2  2.11082E+03  1.10492E+03  5.00000E-01  1.50302E+01  5.51330E+08   22   44    1       1
      2  2.10244E+03  1.00447E+03  5.00000E-01  1.41497E+01  5.72995E+08   22   45    1       1
      2  2.09679E+03  9.77133E+02  5.00000E-01  1.33002E+01  5.79452E+08   21   45    1       1
      2  2.08284E+03  9.04024E+02  5.00000E-01  1.28759E+01  5.95351E+08   21   46    1       1
      2  2.05723E+03  8.03577E+02  5.00000E-01  1.19351E+01  6.17198E+08   21   47    1       1
      2  2.02759E+03  7.03130E+02  5.00000E-01  1.10261E+01  6.38843E+08   21   48    1       1
      2  1.99695E+03  6.09047E+02  5.00000E-01  1.01739E+01  6.58911E+08   20   48    1       1
      2  1.99496E+03  6.02682E+02  5.00000E-01  9.55459E+00  6.60218E+08   20   49    1       1
      2  1.96057E+03  5.02235E+02  5.00000E-01  8.79236E+00  6.80751E+08   20   50    1       1
      2  1.92333E+03  4.01788E+02  5.00000E-01  8.11097E+00  7.01152E+08   20   51    1       1
      2  1.89710E+03  3.54137E+02  5.00000E-01  7.51618E+00  7.14237E+08   19   51    1       1
      2  1.79725E+03  3.05493E+02  5.00000E-01  6.96267E+00  7.64050E+08   18   51    1       1
      2  1.69740E+03  3.01482E+02  5.00000E-01  6.42266E+00  8.27293E+08   17   51    1       1
      2  1.59756E+03  3.01352E+02  5.00000E-01  5.90340E+00  8.79342E+08   16   51    1       1
      2  1.49771E+03  3.01342E+02  5.00000E-01  5.41959E+00  9.20519E+08   15   51    1       1
      2  1.39786E+03  3.01341E+02  5.00000E-01  4.99320E+00  9.75076E+08   14   51    1       1
      2  1.39786E+03  3.01341E+02  5.00000E-01  4.61359E+00  9.75076E+08   14   52    1       1
      2  1.29801E+03  2.00995E+02  5.00000E-01  4.37441E+00  3.23201E+09   13   52    1       1
      2  1.19817E+03  2.00909E+02  5.00000E-01  3.83451E+00  3.28982E+09   12   52    1       1
      2  1.09832E+03  2.00896E+02  5.00000E-01  3.37232E+00  3.33859E+09   11   52    1       1
      2  9.98473E+02  2.00894E+02  5.00000E-01  3.04604E+00  3.38735E+09   10   52    1       1
      2  8.98626E+02  2.00995E+02  5.00000E-01  2.74195E+00  3.44952E+09    9   52    1       1
      2  8.98504E+02  2.00894E+02  5.00000E-01  2.44369E+00  3.44961E+09    9   53    1       1
      2  7.98778E+02  1.02944E+02  5.00000E-01  1.98322E+00  3.81431E+09    8   53    1       1
      2  6.98931E+02  1.00987E+02  5.00000E-01  1.49764E+00  3.86575E+09    7   53    1       1
      2  5.99084E+02  1.00503E+02  5.00000E-01  1.11938E+00  3.92585E+09    6   53    1       1
      2  4.99236E+02  1.00457E+02  5.00000E-01  7.51561E-01  3.97735E+09    5   53    1       1
      2  3.99389E+02  1.00449E+02  5.00000E-01  3.63578E-01  4.01998E+09    4   53    1       1
      2  2.99542E+02  1.00447E+02  5.00000E-01 -1.15397E-02  4.06981E+09    3   53    1       1
      2  1.99695E+02  1.00447E+02  5.00000E-01 -3.86227E-01  4.11963E+09    2   53    1       1
      2  9.98473E+01  1.00447E+02  5.00000E-01 -7.58623E-01  4.17134E+09    1   53    1       1
      2  9.98473E+01  1.00447E+02  5.00000E-01 -1.12819E+00  4.17134E+09    1   54    1       1
      3  2.84565E+03  4.16855E+03  5.00000E-01  4.97007E+01  0.00000E+00   29   13    1       1
      3  2.79572E+03  4.13945E+03  5.00000E-01  4.97007E+01  4.56586E+06   28   13    1       1
      3  2.75110E+03  4.11833E+03  5.00000E-01  4.96002E+01  7.90219E+06   28   14    1       1
      3  2.69588E+03  4.04092E+03  5.00000E-01  4.83895E+01  1.83538E+07   27   14    1       1
      3  2.67592E+03  4.01788E+03  5.00000E-01  4.82826E+01  2.23415E+07   27   15    1       1
      3  2.62362E+03  3.91744E+03  5.00000E-01  4.70671E+01  3.90575E+07   27   16    1       1
      3  2.59603E+03  3.84160E+03  5.00000E-01  4.58566E+01  5.15481E+07   26   16    1       1
      3  2.58596E+03  3.81699E+03  5.00000E-01  4.57332E+01  5.60859E+07   26   17    1       1
      3  2.55537E+03  3.71654E+03  5.00000E-01  4.45185E+01  7.45588E+07   26   18    1       1
      3  2.53192E+03  3.61609E+03  5.00000E-01  4.33102E+01  9.30955E+07   26   19    1       1
      3  2.51444E+03  3.51565E+03  5.00000E-01  4.21089E+01  1.11732E+08   26   20    1       1
      3  2.50329E+03  3.41520E+03  5.00000E-01  4.09154E+01  1.30395E+08   26   21    1       1
      3  2.50000E+03  3.31475E+03  5.00000E-01  3.97303E+01  1.48942E+08   26   22    1       1
      3  2.50727E+03  3.21431E+03  5.00000E-01  3.85541E+01  1.67114E+08   26   23    1       1
      3  2.52828E+03  3.11386E+03  5.00000E-01  3.73874E+01  1.84373E+08   26   24    1       1
      3  2.56176E+03  3.01341E+03  5.00000E-01  3.62307E+01  1.99629E+08   26   25    1       1
      3  2.59230E+03  2.91296E+03  5.00000E-01  3.50846E+01  2.11402E+08   26   26    1       1
      3  2.59603E+03  2.85978E+03  5.00000E-01  3.39493E+01  2.16789E+08   27   26    1       1
      3  2.59981E+03  2.81252E+03  5.00000E-01  3.41915E+01  2.22174E+08   27   27    1       1
      3  2.60160E+03  2.71207E+03  5.00000E-01  3.30813E+01  2.33673E+08   27   28    1       1
      3  2.59717E+03  2.61162E+03  5.00000E-01  3.19831E+01  2.45473E+08   27   29    1       1
      3  2.59603E+03  2.60578E+03  5.00000E-01  3.08973E+01  2.46175E+08   26   29    1       1
      3  2.57366E+03  2.51118E+03  5.00000E-01  3.06135E+01  2.57859E+08   26   30    1       1
      3  2.55229E+03  2.41073E+03  5.00000E-01  2.95262E+01  2.72990E+08   26   31    1       1
      3  2.53211E+03  2.31028E+03  5.00000E-01  2.84518E+01  2.89297E+08   26   32    1       1
      3  2.52295E+03  2.20984E+03  5.00000E-01  2.73908E+01  3.06007E+08   26   33    1       1
      3  2.52301E+03  2.10939E+03  5.00000E-01  2.63435E+01  3.21576E+08   26   34    1       1
      3  2.51043E+03  2.00894E+03  5.00000E-01  2.53105E+01  3.36094E+08   26   35    1       1
      3  2.49618E+03  1.96924E+03  5.00000E-01  2.42921E+01  3.41890E+08   25   35    1       1
      3  2.47186E+03  1.90849E+03  5.00000E-01  2.39328E+01  3.50587E+08   25   36    1       1
      3  2.41850E+03  1.80805E+03  5.00000E-01  2.29159E+01  3.67923E+08   25   37    1       1
      3  2.39633E+03  1.76634E+03  5.00000E-01  2.19149E+01  3.75889E+08   24   37    1       1
      3  2.35796E+03  1.70760E+03  5.00000E-01  2.15399E+01  3.89179E+08   24   38    1       1
      3  2.30424E+03  1.60715E+03  5.00000E-01  2.05429E+01  4.12405E+08   24   39    1       1
      3  2.29649E+03  1.58878E+03  5.00000E-01  1.95637E+01  4.16655E+08   23   39    1       1
      3  2.26051E+03  1.50671E+03  5.00000E-01  1.91782E+01  4.37110E+08   23   40    1       1
      3  2.22815E+03  1.40626E+03  5.00000E-01  1.82072E+01  4.60429E+08   23   41    1       1
      3  2.20232E+03  1.30581E+03  5.00000E-01  1.72568E+01  4.82159E+08   23   42    1       1
      3  2.19664E+03  1.27978E+03  5.00000E-01  1.63284E+01  4.87539E+08   22   42    1       1
      3  2.18099E+03  1.20536E+03  5.00000E-01  1.59386E+01  5.02850E+08   22   43    1       1
      3  2.16581E+03  1.10492E+03  5.00000E-01  1.50302E+01  5.22879E+08   22   44    1       1
      3  2.16840E+03  1.00447E+03  5.00000E-01  1.41497E+01  5.44545E+08   22   45    1       1
      3  2.14707E+03  9.04024E+02  5.00000E-01  1.33002E+01  5.68172E+08   22   46    1       1
      3  2.11866E+03  8.03577E+02  5.00000E-01  1.24841E+01  5.91329E+08   22   47    1       1
      3  2.09679E+03  7.34666E+02  5.00000E-01  1.16328E+01  6.06870E+08   21   47    1       1
      3  2.08735E+03  7.03130E+02  5.00000E-01  1.10261E+01  6.13641E+08   21   48    1       1
      3  2.05405E+03  6.02682E+02  5.00000E-01  1.01739E+01  6.35060E+08   21   49    1       1
      3  2.01804E+03  5.02235E+02  5.00000E-01  9.39293E+00  6.56285E+08   21   50    1       1
      3  1.99695E+03  4.47781E+02  5.00000E-01  8.69226E+00  6.67731E+08   20   50    1       1
      3  1.97980E+03  4.01788E+02  5.00000E-01  8.11097E+00  6.77057E+08   20   51    1       1
      3  1.89710E+03  3.14558E+02  5.00000E-01  7.51617E+00  7.18316E+08   19   51    1       1
      3  1.79725E+03  3.02380E+02  5.00000E-01  6.96267E+00  7.68129E+08   18   51    1       1
      3  1.69740E+03  3.01377E+02  5.00000E-01  6.42265E+00  8.31372E+08   17   51    1       1
      3  1.59756E+03  3.01344E+02  5.00000E-01  5.90339E+00  8.83421E+08   16   51    1       1
      3  1.49771E+03  3.01341E+02  5.00000E-01  5.41959E+00  9.24598E+08   15   51    1       1
      3  1.39786E+03  3.01442E+02  5.00000E-01  4.99319E+00  9.79155E+08   14   51    1       1
      3  1.39770E+03  3.01341E+02  5.00000E-01  4.61358E+00  9.79253E+08   14   52    1       1
      3  1.29801E+03  2.01995E+02  5.00000E-01  4.37441E+00  1.42474E+09   13   52    1       1
      3  1.19817E+03  2.01058E+02  5.00000E-01  3.83451E+00  1.48255E+09   12   52    1       1
      3  1.09832E+03  2.00913E+02  5.00000E-01  3.37232E+00  1.53131E+09   11   52    1       1
      3  9.98473E+02  2.00896E+02  5.00000E-01  3.04604E+00  1.58008E+09   10   52    1       1
      3  8.98626E+02  2.00894E+02  5.00000E-01  2.74195E+00  1.64224E+09    9   52    1       1
      3  8.98626E+02  2.00894E+02  5.00000E-01  2.44369E+00  1.64224E+09    9   53    1       1
      3  7.98778E+02  1.00485E+02  5.00000E-01  1.98322E+00  2.41960E+09    8   53    1       1
      3  6.98931E+02  1.00455E+02  5.00000E-01  1.49764E+00  2.47105E+09    7   53    1       1
      3  5.99084E+02  1.00448E+02  5.00000E-01  1.11937E+00  2.53115E+09    6   53    1       1
      3  4.99236E+02  1.00447E+02  5.00000E-01  7.51559E-01  2.58264E+09    5   53    1       1
      3  3.99389E+02  1.00447E+02  5.00000E-01  3.63577E-01  2.62528E+09    4   53    1       1
      3  2.99542E+02  1.00447E+02  5.00000E-01 -1.15411E-02  2.67510E+09    3   53    1       1
      3  1.99695E+02  1.00548E+02  5.00000E-01 -3.86229E-01  2.72493E+09    2   53    1       1
      3  9.98473E+01  1.00472E+02  5.00000E-01 -7.58625E-01  2.77663E+09    1   53    1       1
      3  9.97966E+01  1.00447E+02  5.00000E-01 -1.12820E+00  2.77666E+09    1   54    1       1
      4  2.86562E+03  4.16855E+03  5.00000E-01  4.97007E+01  0.00000E+00   29   13    1       1
      4  2.81964E+03  4.11833E+03  5.00000E-01  4.97007E+01  6.12308E+06   29   14    1       1
      4  2.79572E+03  4.04929E+03  5.00000E-01  4.84994E+01  1.08866E+07   28   14    1       1
      4  2.77262E+03  4.01788E+03  5.00000E-01  4.83895E+01  1.49696E+07   28   15    1       1
      4  2.73385E+03  3.91744E+03  5.00000E-01  4.71835E+01  2.83677E+07   28   16    1       1
      4  2.70514E+03  3.81699E+03  5.00000E-01  4.59830E+01  4.28986E+07   28   17    1       1
      4  2.69588E+03  3.77597E+03  5.00000E-01  4.47889E+01  4.91759E+07   27   17    1       1
      4  2.68067E+03  3.71654E+03  5.00000E-01  4.46521E+01  5.92657E+07   27   18    1       1
      4  2.66050E+03  3.61609E+03  5.00000E-01  4.34543E+01  7.66313E+07   27   19    1       1
      4  2.64466E+03  3.51565E+03  5.00000E-01  4.22639E+01  9.42243E+07   27   20    1       1
      4  2.63360E+03  3.41520E+03  5.00000E-01  4.10818E+01  1.11776E+08   27   21    1       1
      4  2.62854E+03  3.31475E+03  5.00000E-01  3.99084E+01  1.28977E+08   27   22    1       1
      4  2.63090E+03  3.21431E+03  5.00000E-01  3.87443E+01  1.45490E+08   27   23    1       1
      4  2.64132E+03  3.11386E+03  5.00000E-01  3.75901E+01  1.60935E+08   27   24    1       1
      4  2.65781E+03  3.01341E+03  5.00000E-01  3.64463E+01  1.74922E+08   27   25    1       1
      4  2.67394E+03  2.91296E+03  5.00000E-01  3.53133E+01  1.87257E+08   27   26    1       1
      4  2.68112E+03  2.81252E+03  5.00000E-01  3.41915E+01  1.98734E+08   27   27    1       1
      4  2.68413E+03  2.71207E+03  5.00000E-01  3.30813E+01  2.10233E+08   27   28    1       1
      4  2.68280E+03  2.61162E+03  5.00000E-01  3.19831E+01  2.22034E+08   27   29    1       1
      4  2.67323E+03  2.51118E+03  5.00000E-01  3.08973E+01  2.34910E+08   27   30    1       1
      4  2.66164E+03  2.41073E+03  5.00000E-01  2.98243E+01  2.49355E+08   27   31    1       1
      4  2.64967E+03  2.31028E+03  5.00000E-01  2.87642E+01  2.64914E+08   27   32    1       1
      4  2.63961E+03  2.20984E+03  5.00000E-01  2.77176E+01  2.81013E+08   27   33    1       1
      4  2.63018E+03  2.10939E+03  5.00000E-01  2.66848E+01  2.97004E+08   27   34    1       1
      4  2.61431E+03  2.00894E+03  5.00000E-01  2.56661E+01  3.12858E+08   27   35    1       1
      4  2.59603E+03  1.94135E+03  5.00000E-01  2.46619E+01  3.23775E+08   26   35    1       1
      4  2.58697E+03  1.90849E+03  5.00000E-01  2.42921E+01  3.28965E+08   26   36    1       1
      4  2.55046E+03  1.80805E+03  5.00000E-01  2.32889E+01  3.46075E+08   26   37    1       1
      4  2.50839E+03  1.70760E+03  5.00000E-01  2.23014E+01  3.64870E+08   26   38    1       1
      4  2.49618E+03  1.67782E+03  5.00000E-01  2.13302E+01  3.70702E+08   25   38    1       1
      4  2.46438E+03  1.60715E+03  5.00000E-01  2.09305E+01  3.85588E+08   25   39    1       1
      4  2.42330E+03  1.50671E+03  5.00000E-01  1.99635E+01  4.07149E+08   25   40    1       1
      4  2.39633E+03  1.43343E+03  5.00000E-01  1.90147E+01  4.22918E+08   24   40    1       1
      4  2.38620E+03  1.40626E+03  5.00000E-01  1.86032E+01  4.28884E+08   24   41    1       1
      4  2.35238E+03  1.30581E+03  5.00000E-01  1.76624E+01  4.50436E+08   24   42    1       1
      4  2.32026E+03  1.20536E+03  5.00000E-01  1.67427E+01  4.71214E+08   24   43    1       1
      4  2.29649E+03  1.13945E+03  5.00000E-01  1.58453E+01  4.84556E+08   23   43    1       1
      4  2.28662E+03  1.10492E+03  5.00000E-01  1.54235E+01  4.90271E+08   23   44    1       1
      4  2.24383E+03  1.00447E+03  5.00000E-01  1.45441E+01  5.13208E+08   23   45    1       1
      4  2.20860E+03  9.04024E+02  5.00000E-01  1.36922E+01  5.42779E+08   23   46    1       1
      4  2.19664E+03  8.68433E+02  5.00000E-01  1.28701E+01  5.51793E+08   22   46    1       1
      4  2.17738E+03  8.03577E+02  5.00000E-01  1.24841E+01  5.66667E+08   22   47    1       1
      4  2.14447E+03  7.03130E+02  5.00000E-01  1.16328E+01  5.89245E+08   22   48    1       1
      4  2.10928E+03  6.02682E+02  5.00000E-01  1.07838E+01  6.11423E+08   22   49    1       1
      4  2.09679E+03  5.69548E+02  5.00000E-01  9.98821E+00  6.18674E+08   21   49    1       1
      4  2.07243E+03  5.02235E+02  5.00000E-01  9.39293E+00  6.32879E+08   21   50    1       1
      4  2.03333E+03  4.01788E+02  5.00000E-01  8.69226E+00  6.53967E+08   21   51    1       1
      4  1.99695E+03  3.43720E+02  5.00000E-01  8.07805E+00  6.72120E+08   20   51    1       1
      4  1.89710E+03  3.05003E+02  5.00000E-01  7.51618E+00  7.21933E+08   19   51    1       1
      4  1.79725E+03  3.01629E+02  5.00000E-01  6.96267E+00  7.71746E+08   18   51    1       1
      4  1.69740E+03  3.01351E+02  5.00000E-01  6.42266E+00  8.34989E+08   17   51    1       1
      4  1.59756E+03  3.01342E+02  5.00000E-01  5.90340E+00  8.87039E+08   16   51    1       1
      4  1.49771E+03  3.01341E+02  5.00000E-01  5.41959E+00  9.28216E+08   15   51    1       1
      4  1.39786E+03  3.01442E+02  5.00000E-01  4.99320E+00  9.82772E+08   14   51    1       1
      4  1.39770E+03  3.01341E+02  5.00000E-01  4.61359E+00  9.82870E+08   14   52    1       1
      4  1.29801E+03  2.01995E+02  5.00000E-01  4.37441E+00  1.42836E+09   13   52    1       1
      4  1.19817E+03  2.01058E+02  5.00000E-01  3.83451E+00  1.48616E+09   12   52    1       1
      4  1.09832E+03  2.00913E+02  5.00000E-01  3.37232E+00  1.53493E+09   11   52    1       1
      4  9.98473E+02  2.00896E+02  5.00000E-01  3.04604E+00  1.58370E+09   10   52    1       1
      4  8.98626E+02  2.00894E+02  5.00000E-01  2.74195E+00  1.64586E+09    9   52    1       1
      4  8.98626E+02  2.00894E+02  5.00000E-01  2.44369E+00  1.64586E+09    9   53    1       1
      4  7.98778E+02  1.00485E+02  5.00000E-01  1.98322E+00  2.42322E+09    8   53    1       1
      4  6.98931E+02  1.00455E+02  5.00000E-01  1.49764E+00  2.47467E+09    7   53    1       1
      4  5.99084E+02  1.00448E+02  5.00000E-01  1.11938E+00  2.53477E+09    6   53    1       1
      4  4.99236E+02  1.00447E+02  5.00000E-01  7.51561E-01  2.58626E+09    5   53    1       1
      4  3.99389E+02  1.00447E+02  5.00000E-01  3.63578E-01  2.62890E+09    4   53    1       1
      4  2.99542E+02  1.00447E+02  5.00000E-01 -1.15397E-02  2.67872E+09    3   53    1       1
      4  1.99695E+02  1.00548E+02  5.00000E-01 -3.86227E-01  2.72854E+09    2   53    1       1
      4  9.98473E+01  1.00472E+02  5.00000E-01 -7.58623E-01  2.78025E+09    1   53    1       1
      4  9.97966E+01  1.00447E+02  5.00000E-01 -1.12819E+00  2.78028E+09    1   54    1       1
      5  2.88559E+03  4.16855E+03  5.00000E-01  4.97007E+01  0.00000E+00   29   13    1       1
      5  2.87017E+03  4.11833E+03  5.00000E-01  4.97007E+01  6.12308E+06   29   14    1       1
      5  2.85618E+03  4.01788E+03  5.00000E-01  4.84994E+01  1.35675E+07   29   15    1       1
      5  2.84245E+03  3.91744E+03  5.00000E-01  4.73031E+01  2.41025E+07   29   16    1       1
      5  2.82915E+03  3.81699E+03  5.00000E-01  4.61130E+01  3.71810E+07   29   17    1       1
      5  2.81570E+03  3.71654E+03  5.00000E-01  4.49297E+01  5.21367E+07   29   18    1       1
      5  2.80181E+03  3.61609E+03  5.00000E-01  4.37541E+01  6.83030E+07   29   19    1       1
      5  2.79572E+03  3.57147E+03  5.00000E-01  4.25869E+01  7.57023E+07   28   19    1       1
      5  2.78793E+03  3.51565E+03  5.00000E-01  4.24230E+01  8.51176E+07   28   20    1       1
      5  2.77530E+03  3.41520E+03  5.00000E-01  4.12526E+01  1.01967E+08   28   21    1       1
      5  2.76561E+03  3.31475E+03  5.00000E-01  4.00914E+01  1.18334E+08   28   22    1       1
      5  2.76044E+03  3.21431E+03  5.00000E-01  3.89399E+01  1.33876E+08   28   23    1       1
      5  2.76063E+03  3.11386E+03  5.00000E-01  3.77987E+01  1.48370E+08   28   24    1       1
      5  2.76595E+03  3.01341E+03  5.00000E-01  3.66682E+01  1.61771E+08   28   25    1       1
      5  2.77328E+03  2.91296E+03  5.00000E-01  3.55488E+01  1.74234E+08   28   26    1       1
      5  2.77918E+03  2.81252E+03  5.00000E-01  3.44410E+01  1.86188E+08   28   27    1       1
      5  2.78410E+03  2.71207E+03  5.00000E-01  3.33450E+01  1.98152E+08   28   28    1       1
      5  2.78806E+03  2.61162E+03  5.00000E-01  3.22612E+01  2.10556E+08   28   29    1       1
      5  2.78911E+03  2.51118E+03  5.00000E-01  3.11899E+01  2.23888E+08   28   30    1       1
      5  2.78731E+03  2.41073E+03  5.00000E-01  3.01315E+01  2.38400E+08   28   31    1       1
      5  2.78263E+03  2.31028E+03  5.00000E-01  2.90862E+01  2.53921E+08   28   32    1       1
      5  2.77530E+03  2.20984E+03  5.00000E-01  2.80543E+01  2.70097E+08   28   33    1       1
      5  2.76490E+03  2.10939E+03  5.00000E-01  2.70361E+01  2.86581E+08   28   34    1       1
      5  2.74977E+03  2.00894E+03  5.00000E-01  2.60319E+01  3.03307E+08   28   35    1       1
      5  2.72835E+03  1.90849E+03  5.00000E-01  2.50421E+01  3.20516E+08   28   36    1       1
      5  2.70111E+03  1.80805E+03  5.00000E-01  2.40669E+01  3.38471E+08   28   37    1       1