 LISTING FILE: rma.mls
                         UNIT  16

 OPENING rma.ftl
 FILE TYPE:FTL   UNIT  10

 OPENING rma.cnf
 FILE TYPE:DATA   UNIT  17

 OPENING rma.btn
 FILE TYPE:BTN   UNIT   1

 OPENING rma_Cl.ucn
 FILE TYPE:DATA(BINARY)   UNIT 201

 OPENING rma_Cl._mas
 FILE TYPE:DATA   UNIT 601

 OPENING rma.adv
 FILE TYPE:ADV   UNIT   2

 OPENING rma.dsp
 FILE TYPE:DSP   UNIT   3

 OPENING rma.ssm
 FILE TYPE:SSM   UNIT   4

 OPENING rma.gcg
 FILE TYPE:GCG   UNIT   9

                              +++++++++++++++++++++++++++++++++++++++++++++++++++++++++++++++++++++++
                              +                                                                     +
                              +                               MT3DMS                                +
                              +             A Modular 3D Multi-Species Transport Model              +
                              +    For Simulation of Advection, Dispersion and Chemical Reactions   +
                              +                of Contaminants in Groundwater Systems               +
                              +                                                                     +
                              +++++++++++++++++++++++++++++++++++++++++++++++++++++++++++++++++++++++

  ----- 
 | M T |                                                                                 
 | 3 D |                                                                                 
  ----- 
 THE TRANSPORT MODEL CONSISTS OF     1 LAYER(S)   54 ROW(S)   46 COLUMN(S)
 NUMBER OF STRESS PERIOD(S) FOR TRANSPORT SIMULATION =    1
 NUMBER OF ALL COMPONENTS INCLUDED IN SIMULATION =    1
 NUMBER OF MOBILE COMPONENTS INCLUDED IN SIMULATION =    1
 UNIT FOR TIME IS  sec;  UNIT FOR LENGTH IS    m;  UNIT FOR MASS IS    g
 OPTIONAL PACKAGES INCLUDED IN CURRENT SIMULATION:
  o ADV   ON UNIT  2
  o DSP   ON UNIT  3
  o SSM   ON UNIT  4
  o GCG   ON UNIT  9

 BTN5 -- BASIC TRANSPORT PACKAGE, VERSION 5, FEBRUARY 2010, INPUT READ FROM UNIT  1
      39944 ELEMENTS OF THE  X ARRAY USED BY THE BTN PACKAGE
       2485 ELEMENTS OF THE IX ARRAY USED BY THE BTN PACKAGE

 FMI5 -- FLOW MODEL INTERFACE PACKAGE, VERSION 5, FEBRUARY 2010, INPUT READ FROM UNIT 10
 FLOW MODEL IS STEADY-STATE

 ADV5 -- ADVECTION PACKAGE, VERSION 5, FEBRUARY 2010, INPUT READ FROM UNIT  2
 ADVECTION IS SOLVED WITH THE ULTIMATE SCHEME
 COURANT NUMBER ALLOWED IN SOLVING THE ADVECTION TERM =  1.00    
          0 ELEMENTS OF THE  X ARRAY USED BY THE ADV PACKAGE
          0 ELEMENTS OF THE IX ARRAY USED BY THE ADV PACKAGE

 DSP5 -- DISPERSION PACKAGE, VERSION 5, FEBRUARY 2010, INPUT READ FROM UNIT  3
      27326 ELEMENTS OF THE  X ARRAY USED BY THE DSP PACKAGE
          0 ELEMENTS OF THE IX ARRAY USED BY THE DSP PACKAGE

 SSM5 -- SINK & SOURCE MIXING PACKAGE, VERSION 5, FEBRUARY 2010, INPUT READ FROM UNIT  4
 HEADER LINE OF THE SSM PACKAGE INPUT FILE:
 # SSM: Sink and Source Mixing package file created on 9/21/2017 by ModelMuse version 3.9.0.15.                                                                                                          
 MAJOR STRESS COMPONENTS PRESENT IN THE FLOW MODEL:
  o WELL [WEL]
 MAXIMUM NUMBER OF POINT SINKS/SOURCES =     128
       1664 ELEMENTS OF THE  X ARRAY USED BY THE SSM PACKAGE
          0 ELEMENTS OF THE IX ARRAY BY THE SSM PACKAGE

 GCG5 -- GENERALIZED CONJUGATE GRADIENT SOLVER PACKAGE, VERSION 5, FEBRUARY 2010 INPUT READ FROM UNIT  9
 MAXIMUM OF    1 OUTER ITERATIONS
        AND  200 INNER ITERATIONS ALLOWED FOR CLOSURE
 THE PRECONDITIONING TYPE SELECTED IS MODIFIED INCOMPLETE CHOLESKY (MIC).
 DISPERSION CROSS TERMS LUMPED INTO RIGHT-HAND-SIDE
      54848 ELEMENTS OF THE  X ARRAY USED BY THE GCG PACKAGE
        600 ELEMENTS OF THE IX ARRAY USED BY THE GCG PACKAGE

 ..........................................
 ELEMENTS OF THE  X ARRAY USED =    123783
 ELEMENTS OF THE IX ARRAY USED =      3086
 ..........................................

 LAYER NUMBER  AQUIFER TYPE
 ------------  ------------
       1            0

                                   WIDTH ALONG ROWS (DELR)  READ ON UNIT  1 USING FREE FORMAT
                                   ----------------------------------------------------------

            1           2           3           4           5           6           7           8           9          10
           11          12          13          14          15          16          17          18          19          20
           21          22          23          24          25          26          27          28          29          30
           31          32          33          34          35          36          37          38          39          40
           41          42          43          44          45          46
 .............................................................................................................................
   1    99.85       99.85       99.85       99.85       99.85       99.85       99.85       99.85       99.85       99.85    
        99.85       99.85       99.85       99.85       99.85       99.85       99.85       99.85       99.85       99.85    
        99.85       99.85       99.85       99.85       99.85       99.85       99.85       99.85       99.85       99.85    
        99.85       99.85       99.85       99.85       99.85       99.85       99.85       99.85       99.85       99.85    
        99.85       99.85       99.85       99.85       99.85       99.85    

                                   WIDTH ALONG COLS (DELC)  READ ON UNIT  1 USING FREE FORMAT
                                   ----------------------------------------------------------

            1           2           3           4           5           6           7           8           9          10
           11          12          13          14          15          16          17          18          19          20
           21          22          23          24          25          26          27          28          29          30
           31          32          33          34          35          36          37          38          39          40
           41          42          43          44          45          46          47          48          49          50
           51          52          53          54
 .............................................................................................................................
   1    100.4       100.4       100.4       100.4       100.4       100.4       100.4       100.4       100.4       100.4    
        100.4       100.4       100.4       100.4       100.4       100.4       100.4       100.4       100.4       100.4    
        100.4       100.4       100.4       100.4       100.4       100.4       100.4       100.4       100.4       100.4    
        100.4       100.4       100.4       100.4       100.4       100.4       100.4       100.4       100.4       100.4    
        100.4       100.4       100.4       100.4       100.4       100.4       100.4       100.4       100.4       100.4    
        100.4       100.4       100.4       100.4    

                                   TOP ELEV. OF 1ST LAYER   READ ON UNIT  1 USING FREE FORMAT
                                   ----------------------------------------------------------

            1           2           3           4           5           6           7           8           9          10
           11          12          13          14          15          16          17          18          19          20
           21          22          23          24          25          26          27          28          29          30
           31          32          33          34          35          36          37          38          39          40
           41          42          43          44          45          46
 .............................................................................................................................
   1    70.73       70.69       70.64       70.59       70.55       70.51       70.47       70.43       70.40       70.36    
        70.33       70.30       70.27       70.25       70.22       70.20       70.18       70.16       70.15       70.14    
        70.13       70.12       70.11       70.11       70.11       70.11       70.12       70.13       70.14       70.15    
        70.17       70.18       70.21       70.23       70.26       70.29       70.32       70.36       70.40       70.44    
        70.48       70.53       70.58       70.64       70.70       70.76    
   2    69.35       69.31       69.27       69.23       69.19       69.16       69.13       69.09       69.07       69.04    
        69.02       68.99       68.97       68.95       68.94       68.92       68.91       68.90       68.89       68.89    
        68.89       68.89       68.89       68.89       68.90       68.91       68.92       68.94       68.96       68.98    
        69.00       69.02       69.05       69.08       69.12       69.16       69.20       69.24       69.28       69.33    
        69.39       69.44       69.50       69.56       69.63       69.70    
   3    67.96       67.92       67.88       67.85       67.82       67.80       67.77       67.75       67.73       67.71    
        67.69       67.68       67.66       67.65       67.64       67.64       67.63       67.63       67.63       67.64    
        67.64       67.65       67.66       67.67       67.68       67.70       67.72       67.74       67.77       67.79    
        67.82       67.86       67.89       67.93       67.97       68.01       68.06       68.11       68.16       68.22    
        68.28       68.34       68.41       68.48       68.56       68.64    
   4    66.58       66.53       66.50       66.47       66.45       66.43       66.41       66.39       66.38       66.37    
        66.36       66.35       66.35       66.35       66.35       66.35       66.35       66.36       66.36       66.37    
        66.39       66.40       66.42       66.44       66.46       66.48       66.51       66.54       66.57       66.60    
        66.64       66.68       66.72       66.77       66.82       66.87       66.92       66.98       67.04       67.10    
        67.17       67.24       67.32       67.40       67.49       67.62    
   5    65.20       65.15       65.11       65.09       65.07       65.05       65.04       65.03       65.03       65.02    
        65.02       65.02       65.03       65.03       65.04       65.05       65.06       65.07       65.09       65.11    
        65.13       65.15       65.17       65.20       65.23       65.26       65.30       65.33       65.37       65.41    
        65.45       65.50       65.55       65.60       65.66       65.71       65.77       65.84       65.91       65.98    
        66.05       66.14       66.22       66.32       66.43       66.58    
   6    63.82       63.76       63.73       63.70       63.69       63.67       63.67       63.67       63.67       63.67    
        63.68       63.69       63.70       63.71       63.73       63.75       63.77       63.79       63.81       63.84    
        63.86       63.89       63.93       63.96       64.00       64.04       64.08       64.12       64.17       64.21    
        64.26       64.32       64.37       64.43       64.49       64.56       64.63       64.70       64.77       64.86    
        64.94       65.03       65.14       65.25       65.39       65.53    
   7    62.44       62.38       62.34       62.32       62.30       62.29       62.29       62.30       62.31       62.32    
        62.33       62.35       62.37       62.39       62.41       62.44       62.47       62.50       62.53       62.56    
        62.60       62.64       62.68       62.72       62.76       62.81       62.85       62.91       62.96       63.01    
        63.07       63.13       63.19       63.26       63.33       63.40       63.48       63.56       63.64       63.73    
        63.83       63.94       64.05       64.18       64.41       64.49    
   8    61.06       61.00       60.96       60.93       60.92       60.91       60.92       60.93       60.94       60.96    
        60.98       61.00       61.03       61.06       61.09       61.13       61.16       61.20       61.24       61.28    
        61.33       61.37       61.42       61.47       61.52       61.57       61.63       61.69       61.75       61.81    
        61.88       61.94       62.01       62.09       62.16       62.24       62.33       62.42       62.52       62.62    
        62.73       62.85       62.98       63.13       63.39       63.45    
   9    59.67       59.62       59.57       59.56       59.54       59.54       59.54       59.56       59.57       59.60    
        59.63       59.66       59.69       59.73       59.77       59.81       59.86       59.90       59.95       60.00    
        60.05       60.11       60.16       60.22       60.28       60.34       60.40       60.47       60.54       60.61    
        60.68       60.75       60.83       60.91       61.00       61.09       61.18       61.29       61.39       61.51    
        61.63       61.77       61.92       62.17       62.35       62.42    
  10    58.30       58.25       58.19       58.17       58.16       58.16       58.17       58.18       58.21       58.24    
        58.27       58.31       58.35       58.40       58.45       58.50       58.55       58.61       58.66       58.72    
        58.78       58.84       58.91       58.97       59.04       59.11       59.18       59.25       59.33       59.40    
        59.48       59.57       59.65       59.74       59.84       59.94       60.04       60.16       60.28       60.41    
        60.55       60.70       60.87       61.20       61.30       61.39    
  11    56.95       56.88       56.81       56.79       56.79       56.78       56.79       56.81       56.84       56.88    
        56.92       56.97       57.01       57.07       57.12       57.18       57.24       57.31       57.37       57.44    
        57.51       57.58       57.65       57.72       57.80       57.87       57.95       58.03       58.11       58.20    
        58.29       58.38       58.48       58.58       58.68       58.79       58.91       59.04       59.17       59.31    
        59.47       59.64       59.89       60.19       60.25       60.36    
  12    55.61       55.51       55.44       55.40       55.41       55.42       55.42       55.45       55.48       55.52    
        55.57       55.62       55.68       55.74       55.80       55.87       55.94       56.01       56.08       56.15    
        56.23       56.31       56.39       56.47       56.55       56.64       56.73       56.81       56.91       57.00    
        57.10       57.20       57.31       57.42       57.53       57.65       57.78       57.92       58.07       58.23    
        58.41       58.59       58.95       59.16       59.21       59.34    
  13    54.29       54.14       54.07       54.02       54.03       54.05       54.06       54.08       54.12       54.16    
        54.21       54.27       54.34       54.40       54.48       54.55       54.63       54.71       54.79       54.87    
        54.96       55.04       55.13       55.22       55.31       55.41       55.50       55.60       55.70       55.80    
        55.91       56.02       56.14       56.26       56.39       56.52       56.67       56.82       56.98       57.16    
        57.35       57.59       57.99       58.12       58.18       58.32    
  14    52.97       52.78       52.71       52.64       52.64       52.68       52.70       52.72       52.76       52.81    
        52.87       52.93       53.00       53.07       53.15       53.24       53.32       53.41       53.50       53.59    
        53.69       53.78       53.88       53.98       54.08       54.18       54.28       54.39       54.50       54.61    
        54.73       54.85       54.98       55.11       55.25       55.40       55.56       55.73       55.91       56.10    
        56.31       56.65       56.99       57.08       57.15       57.30    
  15    51.67       51.41       51.35       51.28       51.25       51.29       51.35       51.37       51.41       51.46    
        51.52       51.59       51.67       51.75       51.83       51.92       52.02       52.11       52.21       52.31    
        52.42       52.52       52.63       52.73       52.84       52.95       53.07       53.18       53.30       53.43    
        53.55       53.69       53.83       53.97       54.13       54.29       54.46       54.65       54.84       55.05    
        55.29       55.72       55.97       56.04       56.14       56.29    
  16    50.37       50.04       50.00       49.92       49.87       49.91       49.98       50.02       50.06       50.11    
        50.18       50.25       50.33       50.42       50.52       50.62       50.72       50.82       50.93       51.04    
        51.15       51.26       51.38       51.49       51.61       51.73       51.86       51.98       52.11       52.25    
        52.39       52.53       52.68       52.84       53.01       53.19       53.37       53.58       53.79       54.01    
        54.35       54.77       54.95       55.00       55.14       55.28    
  17    49.07       48.67       48.64       48.56       48.50       48.52       48.60       48.69       48.72       48.77    
        48.84       48.92       49.01       49.10       49.20       49.31       49.42       49.53       49.65       49.77    
        49.89       50.01       50.13       50.26       50.39       50.52       50.65       50.79       50.93       51.08    
        51.23       51.38       51.55       51.72       51.90       52.09       52.30       52.52       52.75       52.99    
        53.43       53.79       53.91       53.97       54.14       54.29    
  18    47.79       47.30       47.29       47.22       47.14       47.14       47.21       47.33       47.39       47.44    
        47.51       47.59       47.69       47.79       47.90       48.01       48.13       48.25       48.37       48.50    
        48.63       48.76       48.90       49.03       49.17       49.31       49.45       49.60       49.75       49.91    
        50.07       50.24       50.42       50.61       50.81       51.01       51.24       51.47       51.71       52.03    
        52.50       52.78       52.88       52.94       53.15       53.30    
  19    46.51       45.94       45.95       45.87       45.79       45.77       45.83       45.95       46.07       46.12    
        46.19       46.27       46.37       46.48       46.59       46.71       46.84       46.97       47.10       47.24    
        47.38       47.52       47.66       47.81       47.96       48.11       48.26       48.42       48.59       48.76    
        48.93       49.12       49.31       49.51       49.72       49.95       50.18       50.43       50.69       51.11    
        51.55       51.77       51.85       51.92       52.16       52.32    
  20    45.23       44.58       44.60       44.54       44.45       44.41       44.44       44.57       44.73       44.80    
        44.87       44.96       45.06       45.18       45.30       45.42       45.56       45.70       45.84       45.98    
        46.13       46.28       46.44       46.59       46.75       46.92       47.08       47.25       47.43       47.61    
        47.80       48.00       48.20       48.42       48.65       48.89       49.14       49.41       49.72       50.20    
        50.58       50.75       50.82       50.92       51.17       51.35    
  21    43.96       43.25       43.26       43.20       43.12       43.06       43.07       43.18       43.36       43.50    
        43.57       43.66       43.76       43.88       44.01       44.14       44.28       44.43       44.58       44.74    
        44.89       45.06       45.22       45.39       45.56       45.73       45.91       46.09       46.28       46.48    
        46.68       46.89       47.11       47.34       47.59       47.85       48.11       48.39       48.79       49.28    
        49.59       49.72       49.79       49.93       50.19       50.40    
  22    42.69       41.94       41.92       41.87       41.79       41.72       41.71       41.80       41.98       42.18    
        42.28       42.36       42.47       42.59       42.72       42.87       43.02       43.17       43.33       43.50    
        43.66       43.83       44.01       44.19       44.37       44.55       44.74       44.94       45.14       45.35    
        45.57       45.80       46.03       46.28       46.54       46.81       47.09       47.41       47.88       48.34    
        48.58       48.70       48.77       48.96       49.22       49.48    
  23    41.43       40.65       40.58       40.55       40.47       40.39       40.36       40.43       40.59       40.83    
        41.00       41.08       41.19       41.31       41.45       41.60       41.76       41.92       42.09       42.26    
        42.44       42.62       42.81       43.00       43.19       43.39       43.59       43.80       44.01       44.24    
        44.47       44.71       44.96       45.23       45.50       45.79       46.09       46.47       46.97       47.37    
        47.57       47.68       47.76       47.99       48.25       48.58    
  24    40.17       39.38       39.24       39.23       39.15       39.07       39.03       39.06       39.21       39.45    
        39.70       39.81       39.91       40.04       40.18       40.34       40.50       40.68       40.85       41.04    
        41.23       41.42       41.62       41.82       42.02       42.23       42.45       42.67       42.90       43.13    
        43.38       43.64       43.91       44.19       44.48       44.78       45.10       45.56       46.05       46.39    
        46.56       46.66       46.76       47.04       47.30       47.69    
  25    38.92       38.12       37.91       37.91       37.84       37.76       37.71       37.72       37.84       38.07    
        38.36       38.55       38.65       38.78       38.93       39.09       39.26       39.44       39.63       39.82    
        40.02       40.22       40.43       40.64       40.86       41.08       41.31       41.55       41.79       42.04    
        42.31       42.58       42.86       43.16       43.46       43.78       44.16       44.65       45.11       45.40    
        45.55       45.65       45.77       46.09       46.35       46.82    
  26    37.67       36.87       36.58       36.60       36.54       36.46       36.40       36.39       36.48       36.69    
        36.99       37.28       37.41       37.54       37.69       37.85       38.03       38.22       38.41       38.62    
        38.83       39.04       39.26       39.48       39.71       39.95       40.19       40.44       40.70       40.97    
        41.24       41.53       41.83       42.14       42.46       42.79       43.24       43.74       44.16       44.40    
        44.54       44.65       44.80       45.15       45.41       45.96    
  27    36.42       35.63       35.25       35.29       35.24       35.17       35.10       35.08       35.14       35.32    
        35.62       35.96       36.18       36.30       36.45       36.62       36.81       37.00       37.21       37.42    
        37.64       37.87       38.10       38.33       38.58       38.83       39.08       39.34       39.62       39.90    
        40.19       40.50       40.81       41.14       41.47       41.84       42.33       42.82       43.19       43.40    
        43.54       43.65       43.84       44.22       44.48       45.11    
  28    35.18       34.39       33.93       33.99       33.96       33.88       33.82       33.78       33.82       33.97    
        34.25       34.61       34.94       35.09       35.24       35.41       35.60       35.80       36.01       36.24    
        36.47       36.70       36.95       37.20       37.45       37.71       37.98       38.26       38.55       38.85    
        39.15       39.47       39.80       40.14       40.49       40.92       41.42       41.89       42.21       42.40    
        42.54       42.66       42.90       43.29       43.56       44.28    
  29    33.93       33.17       32.62       32.70       32.67       32.61       32.54       32.50       32.52       32.63    
        32.89       33.25       33.64       33.89       34.03       34.21       34.40       34.61       34.83       35.06    
        35.30       35.55       35.81       36.07       36.34       36.61       36.90       37.19       37.49       37.80    
        38.13       38.46       38.81       39.16       39.54       40.01       40.51       40.95       41.22       41.41    
        41.55       41.69       41.98       42.38       42.65       43.45    
  30    32.70       31.94       31.31       31.41       31.40       31.34       31.28       31.23       31.24       31.32    
        31.54       31.89       32.32       32.68       32.85       33.02       33.22       33.43       33.66       33.90    
        34.15       34.41       34.68       34.95       35.24       35.53       35.82       36.13       36.45       36.78    
        37.11       37.46       37.82       38.19       38.61       39.11       39.60       39.99       40.24       40.42    
        40.56       40.73       41.07       41.47       41.76       42.63    
  31    31.46       30.73       30.03       30.13       30.13       30.09       30.02       29.98       29.97       30.03    
        30.21       30.54       30.98       31.41       31.68       31.85       32.05       32.27       32.50       32.76    
        33.02       33.29       33.57       33.85       34.15       34.45       34.76       35.09       35.42       35.76    
        36.11       36.48       36.85       37.23       37.70       38.20       38.67       39.02       39.25       39.43    
        39.59       39.79       40.17       40.57       40.87       41.81    
  32    30.23       29.51       28.79       28.85       28.88       28.84       28.78       28.74       28.72       28.77    
        28.91       29.21       29.63       30.11       30.51       30.70       30.89       31.12       31.36       31.62    
        31.89       32.17       32.46       32.76       33.07       33.39       33.72       34.05       34.40       34.76    
        35.13       35.50       35.89       36.31       36.79       37.29       37.73       38.05       38.27       38.46    
        38.63       38.86       39.28       39.68       40.00       41.01    
  33    29.00       28.31       27.56       27.59       27.63       27.60       27.55       27.51       27.49       27.52    
        27.64       27.90       28.30       28.80       29.28       29.56       29.76       29.98       30.23       30.50    
        30.78       31.07       31.38       31.69       32.01       32.34       32.68       33.04       33.40       33.77    
        34.15       34.54       34.94       35.39       35.88       36.37       36.79       37.07       37.30       37.49    
        37.68       37.95       38.40       38.81       39.14       40.21    
  34    27.77       27.10       26.36       26.33       26.39       26.38       26.34       26.30       26.28       26.30    
        26.40       26.61       26.99       27.48       28.01       28.44       28.64       28.87       29.12       29.40    
        29.69       29.99       30.30       30.63       30.97       31.31       31.67       32.03       32.41       32.79    
        33.19       33.59       34.01       34.48       34.97       35.45       35.83       36.10       36.33       36.53    
        36.75       37.05       37.53       37.94       38.30       39.41    
  35    26.55       25.90       25.17       25.08       25.16       25.16       25.13       25.10       25.08       25.10    
        25.18       25.36       25.70       26.18       26.72       27.24       27.55       27.77       28.03       28.31    
        28.61       28.92       29.25       29.58       29.93       30.29       30.66       31.04       31.43       31.83    
        32.24       32.65       33.09       33.57       34.06       34.52       34.87       35.14       35.37       35.59    
        35.83       36.18       36.67       37.09       37.46       38.63    
  36    25.32       24.71       23.99       23.84       23.94       23.96       23.94       23.92       23.90       23.92    
        23.99       24.14       24.44       24.89       25.44       26.01       26.47       26.70       26.95       27.24    
        27.54       27.87       28.20       28.55       28.92       29.29       29.67       30.07       30.47       30.88    
        31.30       31.73       32.19       32.67       33.15       33.59       33.91       34.18       34.42       34.66    
        34.93       35.32       35.83       36.26       36.64       37.84    
  37    24.10       23.51       22.83       22.62       22.74       22.77       22.77       22.75       22.74       22.76    
        22.82       22.95       23.21       23.63       24.17       24.76       25.31       25.64       25.90       26.18    
        26.50       26.83       27.18       27.54       27.91       28.30       28.70       29.11       29.52       29.95    
        30.38       30.81       31.28       31.76       32.24       32.64       32.96       33.23       33.49       33.75    
        34.05       34.48       34.99       35.43       35.84       37.07    
  38    22.88       22.33       21.67       21.41       21.55       21.60       21.61       21.60       21.60       21.62    
        21.68       21.80       22.02       22.41       22.93       23.52       24.12       24.61       24.87       25.15    
        25.47       25.81       26.17       26.54       26.93       27.33       27.74       28.16       28.59       29.03    