# Name File for MODFLOW created on 12/14/2015 by ModelMuse
LIST             11 200WellTest.lst REPLACE
DATA(BINARY)      9 200WellTest.cbc REPLACE
DIS              12 200WellTest.dis OLD
BAS6             13 200WellTest.bas OLD
OC               39 200WellTest.oc OLD
DATA             37 200WellTest.fhd REPLACE
DATA             38 200WellTest.fdn REPLACE
PCG              18 200WellTest.pcg OLD
LPF              14 200WellTest.lpf OLD
WEL              20 200WellTest.wel OLD
