# Name File for MODFLOW created on 2/1/2017 by ModelMuse Version 3.8.1.27
LIST             11 ..\..\output\output.ActiveOnLayerTest\ActiveOnLayerTest.lst REPLACE
DATA(BINARY)      9 ..\..\output\output.ActiveOnLayerTest\ActiveOnLayerTest.cbc REPLACE
DIS              12 ..\..\model\model.ActiveOnLayerTest\ActiveOnLayerTest.dis OLD
BAS6             13 ..\..\model\model.ActiveOnLayerTest\ActiveOnLayerTest.bas OLD
OC               39 ..\..\model\model.ActiveOnLayerTest\ActiveOnLayerTest.oc OLD
DATA             37 ..\..\output\output.ActiveOnLayerTest\ActiveOnLayerTest.fhd REPLACE
DATA             38 ..\..\output\output.ActiveOnLayerTest\ActiveOnLayerTest.fdn REPLACE
PCG              18 ..\..\model\model.ActiveOnLayerTest\ActiveOnLayerTest.pcg OLD
LPF              14 ..\..\model\model.ActiveOnLayerTest\ActiveOnLayerTest.lpf OLD
