# Name File for MODFLOW created on 12/14/2015 by ModelMuse
LIST             11 ActiveOnLayerTest.lst REPLACE
DATA(BINARY)      9 ActiveOnLayerTest.cbc REPLACE
DIS              12 ActiveOnLayerTest.dis OLD
BAS6             13 ActiveOnLayerTest.bas OLD
OC               39 ActiveOnLayerTest.oc OLD
DATA             37 ActiveOnLayerTest.fhd REPLACE
DATA             38 ActiveOnLayerTest.fdn REPLACE
PCG              18 ActiveOnLayerTest.pcg OLD
LPF              14 ActiveOnLayerTest.lpf OLD
