# Name File for MODFLOW created on 12/14/2015 by ModelMuse
LIST             11 AddPointBug.lst REPLACE
DATA(BINARY)      9 AddPointBug.cbc REPLACE
DIS              12 AddPointBug.dis OLD
BAS6             13 AddPointBug.bas OLD
OC               39 AddPointBug.oc OLD
DATA             37 AddPointBug.fhd REPLACE
DATA             38 AddPointBug.fdn REPLACE
PCG              18 AddPointBug.pcg OLD
LPF              14 AddPointBug.lpf OLD
