# Name File for MODFLOW created on 2/1/2017 by ModelMuse Version 3.8.1.27
LIST             11 ..\..\output\output.AddPointBug\AddPointBug.lst REPLACE
DATA(BINARY)      9 ..\..\output\output.AddPointBug\AddPointBug.cbc REPLACE
DIS              12 ..\..\model\model.AddPointBug\AddPointBug.dis OLD
BAS6             13 ..\..\model\model.AddPointBug\AddPointBug.bas OLD
OC               39 ..\..\model\model.AddPointBug\AddPointBug.oc OLD
DATA             37 ..\..\output\output.AddPointBug\AddPointBug.fhd REPLACE
DATA             38 ..\..\output\output.AddPointBug\AddPointBug.fdn REPLACE
PCG              18 ..\..\model\model.AddPointBug\AddPointBug.pcg OLD
LPF              14 ..\..\model\model.AddPointBug\AddPointBug.lpf OLD
