# Name File for MODFLOW created on 12/14/2015 by ModelMuse
LIST             11 AquiferiaInterpolate.lst REPLACE
DATA(BINARY)      9 AquiferiaInterpolate.cbc REPLACE
DIS              12 AquiferiaInterpolate.dis OLD
BAS6             13 AquiferiaInterpolate.bas OLD
OC               39 AquiferiaInterpolate.oc OLD
DATA             37 AquiferiaInterpolate.fhd REPLACE
DATA             38 AquiferiaInterpolate.fdn REPLACE
PCG              18 AquiferiaInterpolate.pcg OLD
LPF              14 AquiferiaInterpolate.lpf OLD
