# Name File for MODFLOW created on 2/1/2017 by ModelMuse Version 3.8.1.27
LIST             11 ..\..\output\output.AssignementTestModflow\AssignementTestModflow.lst REPLACE
DATA(BINARY)      9 ..\..\output\output.AssignementTestModflow\AssignementTestModflow.cbc REPLACE
DIS              12 ..\..\model\model.AssignementTestModflow\AssignementTestModflow.dis OLD
BAS6             13 ..\..\model\model.AssignementTestModflow\AssignementTestModflow.bas OLD
OC               39 ..\..\model\model.AssignementTestModflow\AssignementTestModflow.oc OLD
DATA             37 ..\..\output\output.AssignementTestModflow\AssignementTestModflow.fhd REPLACE
DATA             38 ..\..\output\output.AssignementTestModflow\AssignementTestModflow.fdn REPLACE
PCG              18 ..\..\model\model.AssignementTestModflow\AssignementTestModflow.pcg OLD
LPF              14 ..\..\model\model.AssignementTestModflow\AssignementTestModflow.lpf OLD
