# Name File for MODFLOW created on 2/1/2017 by ModelMuse Version 3.8.1.27
LIST             11 ..\..\output\output.AssignementTest2Modflow\AssignementTest2Modflow.lst REPLACE
DATA(BINARY)      9 ..\..\output\output.AssignementTest2Modflow\AssignementTest2Modflow.cbc REPLACE
DIS              12 ..\..\model\model.AssignementTest2Modflow\AssignementTest2Modflow.dis OLD
BAS6             13 ..\..\model\model.AssignementTest2Modflow\AssignementTest2Modflow.bas OLD
OC               39 ..\..\model\model.AssignementTest2Modflow\AssignementTest2Modflow.oc OLD
DATA             37 ..\..\output\output.AssignementTest2Modflow\AssignementTest2Modflow.fhd REPLACE
DATA             38 ..\..\output\output.AssignementTest2Modflow\AssignementTest2Modflow.fdn REPLACE
PCG              18 ..\..\model\model.AssignementTest2Modflow\AssignementTest2Modflow.pcg OLD
LPF              14 ..\..\model\model.AssignementTest2Modflow\AssignementTest2Modflow.lpf OLD
