# Name File for MODFLOW created on 2/1/2017 by ModelMuse Version 3.8.1.27
LIST             11 ..\..\output\output.BcfTest\BcfTest.lst REPLACE
DATA(BINARY)      9 ..\..\output\output.BcfTest\BcfTest.cbc REPLACE
DIS              12 ..\..\model\model.BcfTest\BcfTest.dis OLD
BAS6             13 ..\..\model\model.BcfTest\BcfTest.bas OLD
OC               39 ..\..\model\model.BcfTest\BcfTest.oc OLD
DATA             37 ..\..\output\output.BcfTest\BcfTest.fhd REPLACE
DATA             38 ..\..\output\output.BcfTest\BcfTest.fdn REPLACE
PCG              18 ..\..\model\model.BcfTest\BcfTest.pcg OLD
BCF6             64 ..\..\model\model.BcfTest\BcfTest.bcf OLD
CHD              17 ..\..\model\model.BcfTest\BcfTest.chd OLD
