# Name File for MODFLOW created on 12/14/2015 by ModelMuse
LIST             11 BcfTest.lst REPLACE
DATA(BINARY)      9 BcfTest.cbc REPLACE
DIS              12 BcfTest.dis OLD
BAS6             13 BcfTest.bas OLD
OC               39 BcfTest.oc OLD
DATA             37 BcfTest.fhd REPLACE
DATA             38 BcfTest.fdn REPLACE
PCG              18 BcfTest.pcg OLD
BCF6             64 BcfTest.bcf OLD
CHD              17 BcfTest.chd OLD
