# Name File for MODFLOW created on 12/14/2015 by ModelMuse
LIST             11 BcfTest2.lst REPLACE
DATA(BINARY)      9 BcfTest2.cbc REPLACE
DIS              12 BcfTest2.dis OLD
BAS6             13 BcfTest2.bas OLD
OC               39 BcfTest2.oc OLD
DATA             37 BcfTest2.fhd REPLACE
DATA             38 BcfTest2.fdn REPLACE
PCG              18 BcfTest2.pcg OLD
BCF6             64 BcfTest2.bcf OLD
CHD              17 BcfTest2.chd OLD
