# TDIS file created on 7/28/2023 by ModelMuse version 5.1.1.34.

BEGIN OPTIONS
  TIME_UNITS days
END OPTIONS

BEGIN DIMENSIONS
  NPER     1
END DIMENSIONS

BEGIN PERIODDATA
    2.000000000000E+005     10  1.000000000000E+000  # perlen nstp tsmult, Stress period      1 Time =  0.000000000000E+000  -  2.000000000000E+005 
END PERIODDATA
