# Name File for MODFLOW created on 7/28/2023 by ModelMuse Version 5.1.1.34
BEGIN OPTIONS
  LIST BuoyancySFR.lst
  PRINT_INPUT
  SAVE_FLOWS
END OPTIONS

BEGIN PACKAGES
  DIS6         BuoyancySFR.dis  DIS
  IC6          BuoyancySFR.ic  IC
  NPF6         BuoyancySFR.npf  NPF
  STO6         BuoyancySFR.sto  STO
  OC6          BuoyancySFR.oc  OC
  GHB6         BuoyancySFR.ghb  GHB-1
  WEL6         BuoyancySFR.wel  WEL-1
  SFR6         BuoyancySFR.sfr  SFR-1
  BUY6         BuoyancySFR.buy  BUY6
END PACKAGES
