# DSP: GWT Dispersion Package file created on 7/28/2023 by ModelMuse version 5.1.1.34.
BEGIN OPTIONS
END OPTIONS

BEGIN GRIDDATA
  DIFFC LAYERED IPRN    12
    CONSTANT   1.000000000000E-010  # DIFFC 1

    CONSTANT   1.000000000000E-010  # DIFFC 2

    CONSTANT   1.000000000000E-010  # DIFFC 3

    CONSTANT   1.000000000000E-010  # DIFFC 4

    CONSTANT   1.000000000000E-010  # DIFFC 5

    CONSTANT   1.000000000000E-010  # DIFFC 6

    CONSTANT   1.000000000000E-010  # DIFFC 7

    CONSTANT   1.000000000000E-010  # DIFFC 8

    CONSTANT   1.000000000000E-010  # DIFFC 9

    CONSTANT   1.000000000000E-010  # DIFFC 10

    CONSTANT   1.000000000000E-010  # DIFFC 11

    CONSTANT   1.000000000000E-010  # DIFFC 12

    CONSTANT   1.000000000000E-010  # DIFFC 13

    CONSTANT   1.000000000000E-010  # DIFFC 14

    CONSTANT   1.000000000000E-010  # DIFFC 15

    CONSTANT   1.000000000000E-010  # DIFFC 16

    CONSTANT   1.000000000000E-010  # DIFFC 17

    CONSTANT   1.000000000000E-010  # DIFFC 18

    CONSTANT   1.000000000000E-010  # DIFFC 19

    CONSTANT   1.000000000000E-010  # DIFFC 20

    CONSTANT   1.000000000000E-010  # DIFFC 21

    CONSTANT   1.000000000000E-010  # DIFFC 22

    CONSTANT   1.000000000000E-010  # DIFFC 23

    CONSTANT   1.000000000000E-010  # DIFFC 24

    CONSTANT   1.000000000000E-010  # DIFFC 25

    CONSTANT   1.000000000000E-010  # DIFFC 26

    CONSTANT   1.000000000000E-010  # DIFFC 27

    CONSTANT   1.000000000000E-010  # DIFFC 28

    CONSTANT   1.000000000000E-010  # DIFFC 29

    CONSTANT   1.000000000000E-010  # DIFFC 30

    CONSTANT   1.000000000000E-010  # DIFFC 31

    CONSTANT   1.000000000000E-010  # DIFFC 32

    CONSTANT   1.000000000000E-010  # DIFFC 33

    CONSTANT   1.000000000000E-010  # DIFFC 34

    CONSTANT   1.000000000000E-010  # DIFFC 35

    CONSTANT   1.000000000000E-010  # DIFFC 36

    CONSTANT   1.000000000000E-010  # DIFFC 37

    CONSTANT   1.000000000000E-010  # DIFFC 38

    CONSTANT   1.000000000000E-010  # DIFFC 39

    CONSTANT   1.000000000000E-010  # DIFFC 40

    CONSTANT   1.000000000000E-010  # DIFFC 41

    CONSTANT   1.000000000000E-010  # DIFFC 42

    CONSTANT   1.000000000000E-010  # DIFFC 43

    CONSTANT   1.000000000000E-010  # DIFFC 44

    CONSTANT   1.000000000000E-010  # DIFFC 45

    CONSTANT   1.000000000000E-010  # DIFFC 46

    CONSTANT   1.000000000000E-010  # DIFFC 47

    CONSTANT   1.000000000000E-010  # DIFFC 48

    CONSTANT   1.000000000000E-010  # DIFFC 49

    CONSTANT   1.000000000000E-010  # DIFFC 50

    CONSTANT   1.000000000000E-010  # DIFFC 51

    CONSTANT   1.000000000000E-010  # DIFFC 52

    CONSTANT   1.000000000000E-010  # DIFFC 53

    CONSTANT   1.000000000000E-010  # DIFFC 54

    CONSTANT   1.000000000000E-010  # DIFFC 55

    CONSTANT   1.000000000000E-010  # DIFFC 56

    CONSTANT   1.000000000000E-010  # DIFFC 57

    CONSTANT   1.000000000000E-010  # DIFFC 58

    CONSTANT   1.000000000000E-010  # DIFFC 59

    CONSTANT   1.000000000000E-010  # DIFFC 60

    CONSTANT   1.000000000000E-010  # DIFFC 61

    CONSTANT   1.000000000000E-010  # DIFFC 62

    CONSTANT   1.000000000000E-010  # DIFFC 63

    CONSTANT   1.000000000000E-010  # DIFFC 64

    CONSTANT   1.000000000000E-010  # DIFFC 65

    CONSTANT   1.000000000000E-010  # DIFFC 66

    CONSTANT   1.000000000000E-010  # DIFFC 67

    CONSTANT   1.000000000000E-010  # DIFFC 68

    CONSTANT   1.000000000000E-010  # DIFFC 69

    CONSTANT   1.000000000000E-010  # DIFFC 70

    CONSTANT   1.000000000000E-010  # DIFFC 71

    CONSTANT   1.000000000000E-010  # DIFFC 72

    CONSTANT   1.000000000000E-010  # DIFFC 73

    CONSTANT   1.000000000000E-010  # DIFFC 74

    CONSTANT   1.000000000000E-010  # DIFFC 75

    CONSTANT   1.000000000000E-010  # DIFFC 76

    CONSTANT   1.000000000000E-010  # DIFFC 77

    CONSTANT   1.000000000000E-010  # DIFFC 78

    CONSTANT   1.000000000000E-010  # DIFFC 79

    CONSTANT   1.000000000000E-010  # DIFFC 80

    CONSTANT   1.000000000000E-010  # DIFFC 81

    CONSTANT   1.000000000000E-010  # DIFFC 82

    CONSTANT   1.000000000000E-010  # DIFFC 83

    CONSTANT   1.000000000000E-010  # DIFFC 84

    CONSTANT   1.000000000000E-010  # DIFFC 85

    CONSTANT   1.000000000000E-010  # DIFFC 86

    CONSTANT   1.000000000000E-010  # DIFFC 87

    CONSTANT   1.000000000000E-010  # DIFFC 88

    CONSTANT   1.000000000000E-010  # DIFFC 89

    CONSTANT   1.000000000000E-010  # DIFFC 90

    CONSTANT   1.000000000000E-010  # DIFFC 91

    CONSTANT   1.000000000000E-010  # DIFFC 92

    CONSTANT   1.000000000000E-010  # DIFFC 93

    CONSTANT   1.000000000000E-010  # DIFFC 94

    CONSTANT   1.000000000000E-010  # DIFFC 95

    CONSTANT   1.000000000000E-010  # DIFFC 96

    CONSTANT   1.000000000000E-010  # DIFFC 97

    CONSTANT   1.000000000000E-010  # DIFFC 98

    CONSTANT   1.000000000000E-010  # DIFFC 99

    CONSTANT   1.000000000000E-010  # DIFFC 100

  ALH LAYERED IPRN    12
    CONSTANT   1.000000000000E+001  # ALH 1

    CONSTANT   1.000000000000E+001  # ALH 2

    CONSTANT   1.000000000000E+001  # ALH 3

    CONSTANT   1.000000000000E+001  # ALH 4

    CONSTANT   1.000000000000E+001  # ALH 5

    CONSTANT   1.000000000000E+001  # ALH 6

    CONSTANT   1.000000000000E+001  # ALH 7

    CONSTANT   1.000000000000E+001  # ALH 8

    CONSTANT   1.000000000000E+001  # ALH 9

    CONSTANT   1.000000000000E+001  # ALH 10

    CONSTANT   1.000000000000E+001  # ALH 11

    CONSTANT   1.000000000000E+001  # ALH 12

    CONSTANT   1.000000000000E+001  # ALH 13

    CONSTANT   1.000000000000E+001  # ALH 14

    CONSTANT   1.000000000000E+001  # ALH 15

    CONSTANT   1.000000000000E+001  # ALH 16

    CONSTANT   1.000000000000E+001  # ALH 17

    CONSTANT   1.000000000000E+001  # ALH 18

    CONSTANT   1.000000000000E+001  # ALH 19

    CONSTANT   1.000000000000E+001  # ALH 20

    CONSTANT   1.000000000000E+001  # ALH 21

    CONSTANT   1.000000000000E+001  # ALH 22

    CONSTANT   1.000000000000E+001  # ALH 23

    CONSTANT   1.000000000000E+001  # ALH 24

    CONSTANT   1.000000000000E+001  # ALH 25

    CONSTANT   1.000000000000E+001  # ALH 26

    CONSTANT   1.000000000000E+001  # ALH 27

    CONSTANT   1.000000000000E+001  # ALH 28

    CONSTANT   1.000000000000E+001  # ALH 29

    CONSTANT   1.000000000000E+001  # ALH 30

    CONSTANT   1.000000000000E+001  # ALH 31

    CONSTANT   1.000000000000E+001  # ALH 32

    CONSTANT   1.000000000000E+001  # ALH 33

    CONSTANT   1.000000000000E+001  # ALH 34

    CONSTANT   1.000000000000E+001  # ALH 35

    CONSTANT   1.000000000000E+001  # ALH 36

    CONSTANT   1.000000000000E+001  # ALH 37

    CONSTANT   1.000000000000E+001  # ALH 38

    CONSTANT   1.000000000000E+001  # ALH 39

    CONSTANT   1.000000000000E+001  # ALH 40

    CONSTANT   1.000000000000E+001  # ALH 41

    CONSTANT   1.000000000000E+001  # ALH 42

    CONSTANT   1.000000000000E+001  # ALH 43

    CONSTANT   1.000000000000E+001  # ALH 44

    CONSTANT   1.000000000000E+001  # ALH 45

    CONSTANT   1.000000000000E+001  # ALH 46

    CONSTANT   1.000000000000E+001  # ALH 47

    CONSTANT   1.000000000000E+001  # ALH 48

    CONSTANT   1.000000000000E+001  # ALH 49

    CONSTANT   1.000000000000E+001  # ALH 50

    CONSTANT   1.000000000000E+001  # ALH 51

    CONSTANT   1.000000000000E+001  # ALH 52

    CONSTANT   1.000000000000E+001  # ALH 53

    CONSTANT   1.000000000000E+001  # ALH 54

    CONSTANT   1.000000000000E+001  # ALH 55

    CONSTANT   1.000000000000E+001  # ALH 56

    CONSTANT   1.000000000000E+001  # ALH 57

    CONSTANT   1.000000000000E+001  # ALH 58

    CONSTANT   1.000000000000E+001  # ALH 59

    CONSTANT   1.000000000000E+001  # ALH 60

    CONSTANT   1.000000000000E+001  # ALH 61

    CONSTANT   1.000000000000E+001  # ALH 62

    CONSTANT   1.000000000000E+001  # ALH 63

    CONSTANT   1.000000000000E+001  # ALH 64

    CONSTANT   1.000000000000E+001  # ALH 65

    CONSTANT   1.000000000000E+001  # ALH 66

    CONSTANT   1.000000000000E+001  # ALH 67

    CONSTANT   1.000000000000E+001  # ALH 68

    CONSTANT   1.000000000000E+001  # ALH 69

    CONSTANT   1.000000000000E+001  # ALH 70

    CONSTANT   1.000000000000E+001  # ALH 71

    CONSTANT   1.000000000000E+001  # ALH 72

    CONSTANT   1.000000000000E+001  # ALH 73

    CONSTANT   1.000000000000E+001  # ALH 74

    CONSTANT   1.000000000000E+001  # ALH 75

    CONSTANT   1.000000000000E+001  # ALH 76

    CONSTANT   1.000000000000E+001  # ALH 77

    CONSTANT   1.000000000000E+001  # ALH 78

    CONSTANT   1.000000000000E+001  # ALH 79

    CONSTANT   1.000000000000E+001  # ALH 80

    CONSTANT   1.000000000000E+001  # ALH 81

    CONSTANT   1.000000000000E+001  # ALH 82

    CONSTANT   1.000000000000E+001  # ALH 83

    CONSTANT   1.000000000000E+001  # ALH 84

    CONSTANT   1.000000000000E+001  # ALH 85

    CONSTANT   1.000000000000E+001  # ALH 86

    CONSTANT   1.000000000000E+001  # ALH 87

    CONSTANT   1.000000000000E+001  # ALH 88

    CONSTANT   1.000000000000E+001  # ALH 89

    CONSTANT   1.000000000000E+001  # ALH 90

    CONSTANT   1.000000000000E+001  # ALH 91

    CONSTANT   1.000000000000E+001  # ALH 92

    CONSTANT   1.000000000000E+001  # ALH 93

    CONSTANT   1.000000000000E+001  # ALH 94

    CONSTANT   1.000000000000E+001  # ALH 95

    CONSTANT   1.000000000000E+001  # ALH 96

    CONSTANT   1.000000000000E+001  # ALH 97

    CONSTANT   1.000000000000E+001  # ALH 98

    CONSTANT   1.000000000000E+001  # ALH 99

    CONSTANT   1.000000000000E+001  # ALH 100

  ATH1 LAYERED IPRN    12
    CONSTANT   1.000000000000E-001  # ATH1 1

    CONSTANT   1.000000000000E-001  # ATH1 2

    CONSTANT   1.000000000000E-001  # ATH1 3

    CONSTANT   1.000000000000E-001  # ATH1 4

    CONSTANT   1.000000000000E-001  # ATH1 5

    CONSTANT   1.000000000000E-001  # ATH1 6

    CONSTANT   1.000000000000E-001  # ATH1 7

    CONSTANT   1.000000000000E-001  # ATH1 8

    CONSTANT   1.000000000000E-001  # ATH1 9

    CONSTANT   1.000000000000E-001  # ATH1 10

    CONSTANT   1.000000000000E-001  # ATH1 11

    CONSTANT   1.000000000000E-001  # ATH1 12

    CONSTANT   1.000000000000E-001  # ATH1 13

    CONSTANT   1.000000000000E-001  # ATH1 14

    CONSTANT   1.000000000000E-001  # ATH1 15

    CONSTANT   1.000000000000E-001  # ATH1 16

    CONSTANT   1.000000000000E-001  # ATH1 17

    CONSTANT   1.000000000000E-001  # ATH1 18

    CONSTANT   1.000000000000E-001  # ATH1 19

    CONSTANT   1.000000000000E-001  # ATH1 20

    CONSTANT   1.000000000000E-001  # ATH1 21

    CONSTANT   1.000000000000E-001  # ATH1 22

    CONSTANT   1.000000000000E-001  # ATH1 23

    CONSTANT   1.000000000000E-001  # ATH1 24

    CONSTANT   1.000000000000E-001  # ATH1 25

    CONSTANT   1.000000000000E-001  # ATH1 26

    CONSTANT   1.000000000000E-001  # ATH1 27

    CONSTANT   1.000000000000E-001  # ATH1 28

    CONSTANT   1.000000000000E-001  # ATH1 29

    CONSTANT   1.000000000000E-001  # ATH1 30

    CONSTANT   1.000000000000E-001  # ATH1 31

    CONSTANT   1.000000000000E-001  # ATH1 32

    CONSTANT   1.000000000000E-001  # ATH1 33

    CONSTANT   1.000000000000E-001  # ATH1 34

    CONSTANT   1.000000000000E-001  # ATH1 35

    CONSTANT   1.000000000000E-001  # ATH1 36

    CONSTANT   1.000000000000E-001  # ATH1 37

    CONSTANT   1.000000000000E-001  # ATH1 38

    CONSTANT   1.000000000000E-001  # ATH1 39

    CONSTANT   1.000000000000E-001  # ATH1 40

    CONSTANT   1.000000000000E-001  # ATH1 41

    CONSTANT   1.000000000000E-001  # ATH1 42

    CONSTANT   1.000000000000E-001  # ATH1 43

    CONSTANT   1.000000000000E-001  # ATH1 44

    CONSTANT   1.000000000000E-001  # ATH1 45

    CONSTANT   1.000000000000E-001  # ATH1 46

    CONSTANT   1.000000000000E-001  # ATH1 47

    CONSTANT   1.000000000000E-001  # ATH1 48

    CONSTANT   1.000000000000E-001  # ATH1 49

    CONSTANT   1.000000000000E-001  # ATH1 50

    CONSTANT   1.000000000000E-001  # ATH1 51

    CONSTANT   1.000000000000E-001  # ATH1 52

    CONSTANT   1.000000000000E-001  # ATH1 53

    CONSTANT   1.000000000000E-001  # ATH1 54

    CONSTANT   1.000000000000E-001  # ATH1 55

    CONSTANT   1.000000000000E-001  # ATH1 56

    CONSTANT   1.000000000000E-001  # ATH1 57

    CONSTANT   1.000000000000E-001  # ATH1 58

    CONSTANT   1.000000000000E-001  # ATH1 59

    CONSTANT   1.000000000000E-001  # ATH1 60

    CONSTANT   1.000000000000E-001  # ATH1 61

    CONSTANT   1.000000000000E-001  # ATH1 62

    CONSTANT   1.000000000000E-001  # ATH1 63

    CONSTANT   1.000000000000E-001  # ATH1 64

    CONSTANT   1.000000000000E-001  # ATH1 65

    CONSTANT   1.000000000000E-001  # ATH1 66

    CONSTANT   1.000000000000E-001  # ATH1 67

    CONSTANT   1.000000000000E-001  # ATH1 68

    CONSTANT   1.000000000000E-001  # ATH1 69

    CONSTANT   1.000000000000E-001  # ATH1 70

    CONSTANT   1.000000000000E-001  # ATH1 71

    CONSTANT   1.000000000000E-001  # ATH1 72

    CONSTANT   1.000000000000E-001  # ATH1 73

    CONSTANT   1.000000000000E-001  # ATH1 74

    CONSTANT   1.000000000000E-001  # ATH1 75

    CONSTANT   1.000000000000E-001  # ATH1 76

    CONSTANT   1.000000000000E-001  # ATH1 77

    CONSTANT   1.000000000000E-001  # ATH1 78

    CONSTANT   1.000000000000E-001  # ATH1 79

    CONSTANT   1.000000000000E-001  # ATH1 80

    CONSTANT   1.000000000000E-001  # ATH1 81

    CONSTANT   1.000000000000E-001  # ATH1 82

    CONSTANT   1.000000000000E-001  # ATH1 83

    CONSTANT   1.000000000000E-001  # ATH1 84

    CONSTANT   1.000000000000E-001  # ATH1 85

    CONSTANT   1.000000000000E-001  # ATH1 86

    CONSTANT   1.000000000000E-001  # ATH1 87

    CONSTANT   1.000000000000E-001  # ATH1 88

    CONSTANT   1.000000000000E-001  # ATH1 89

    CONSTANT   1.000000000000E-001  # ATH1 90

    CONSTANT   1.000000000000E-001  # ATH1 91

    CONSTANT   1.000000000000E-001  # ATH1 92

    CONSTANT   1.000000000000E-001  # ATH1 93

    CONSTANT   1.000000000000E-001  # ATH1 94

    CONSTANT   1.000000000000E-001  # ATH1 95

    CONSTANT   1.000000000000E-001  # ATH1 96

    CONSTANT   1.000000000000E-001  # ATH1 97

    CONSTANT   1.000000000000E-001  # ATH1 98

    CONSTANT   1.000000000000E-001  # ATH1 99

    CONSTANT   1.000000000000E-001  # ATH1 100

END GRIDDATA

