# SFR: MODFLOW-6 Stream Flow Routing package file created on 7/28/2023 by ModelMuse version 5.1.1.34.
BEGIN OPTIONS
    FLOW_PACKAGE_NAME SFR-1
    FLOW_PACKAGE_AUXILIARY_NAME  Temperature
    BOUNDNAMES
    PRINT_INPUT
    SAVE_FLOWS
    CONCENTRATION FILEOUT BuoyancySFR.Temperature.sft_conc
    BUDGET FILEOUT BuoyancySFR.Temperature.sft_budget
    BUDGETCSV FILEOUT BuoyancySFR.Temperature.sft_budget.csv
END OPTIONS

BEGIN PACKAGEDATA
# <rno> <strt> <boundname>
# defined by Object2
     1  6.000000000000E+000  Object2
     2  6.000000000000E+000  Object2
     3  6.000000000000E+000  Object2
     4  6.000000000000E+000  Object2
     5  6.000000000000E+000  Object2
     6  6.000000000000E+000  Object2
     7  6.000000000000E+000  Object2
     8  6.000000000000E+000  Object2
END PACKAGEDATA

BEGIN PERIOD      1
# rno sftsetting (defined by Object2)
     1 STATUS CONSTANT
     1 CONCENTRATION  6.000000000000E+000 
     2 STATUS CONSTANT
     2 CONCENTRATION  6.000000000000E+000 
     3 STATUS CONSTANT
     3 CONCENTRATION  6.000000000000E+000 
     4 STATUS CONSTANT
     4 CONCENTRATION  6.000000000000E+000 
     5 STATUS CONSTANT
     5 CONCENTRATION  6.000000000000E+000 
     6 STATUS CONSTANT
     6 CONCENTRATION  6.000000000000E+000 
     7 STATUS CONSTANT
     7 CONCENTRATION  6.000000000000E+000 
     8 STATUS CONSTANT
     8 CONCENTRATION  6.000000000000E+000 
END PERIOD 

