# Transport name file for Salinity file created on 7/28/2023 by ModelMuse version 5.1.1.34.
BEGIN OPTIONS
  LIST BuoyancySFR.Salinity.lst
    PRINT_INPUT
    SAVE_FLOWS
END OPTIONS

BEGIN PACKAGES
  DIS6 BuoyancySFR.Salinity.dis
  OC6 BuoyancySFR.Salinity.oc
  SFT6 BuoyancySFR.Salinity.sft
  ADV6 BuoyancySFR.Salinity.adv
  DSP6 BuoyancySFR.Salinity.dsp
  SSM6 BuoyancySFR.Salinity.ssm
  IC6 BuoyancySFR.Salinity.ic
  MST6 BuoyancySFR.Salinity.mst
END PACKAGES
