# MAW: Multi-Aquifer Well package file created on 7/28/2023 by ModelMuse version 5.1.1.34.
BEGIN OPTIONS
    FLOW_PACKAGE_NAME MAW-1
    FLOW_PACKAGE_AUXILIARY_NAME  Temperature
    BOUNDNAMES
    PRINT_INPUT
    SAVE_FLOWS
    CONCENTRATION FILEOUT BuoyancyMAW.Temperature.mwt_conc
    BUDGET FILEOUT BuoyancyMAW.Temperature.mwt_budget
    BUDGETCSV FILEOUT BuoyancyMAW.Temperature.mwt_budget.csv
END OPTIONS

BEGIN PACKAGEDATA
# <mawno> <strt> [<boundname>]
     1  0.000000000000E+000  'Object2' 
END PACKAGEDATA

BEGIN PERIOD      1
# <wellno> <<mwtsetting>>
     1 STATUS ACTIVE
     1 RATE  6.000000000000E+000 
END PERIOD 

