# LAK: Lake package for MODFLOW 6 file created on 7/28/2023 by ModelMuse version 5.1.1.34.
BEGIN OPTIONS
    FLOW_PACKAGE_NAME LAK-1
    FLOW_PACKAGE_AUXILIARY_NAME  Salinity
    BOUNDNAMES
    PRINT_INPUT
    SAVE_FLOWS
    CONCENTRATION FILEOUT BuoyancyLAK.Salinity.lkt_conc
    BUDGET FILEOUT BuoyancyLAK.Salinity.lkt_budget
    BUDGETCSV FILEOUT BuoyancyLAK.Salinity.lkt_budget.csv
END OPTIONS

BEGIN PACKAGEDATA
# <lakeno> <strt> <boundname>
       1  0.000000000000E+000  'Object2' 
END PACKAGEDATA

BEGIN PERIOD      1
     1 STATUS CONSTANT
     1 CONCENTRATION  3.500000000000E+001 
END PERIOD 

