# CNC: GWT Constant Concentration Package file created on 7/28/2023 by ModelMuse version 5.1.1.34.
BEGIN OPTIONS
    AUXILIARY IFACE
    BOUNDNAMES
    PRINT_INPUT
    SAVE_FLOWS
END OPTIONS

BEGIN DIMENSIONS
  MAXBOUND   100
END DIMENSIONS

BEGIN PERIOD      1
     1     1   200  6.000000000000E+000      0 'Object0'  # Stress periods: Layer Row Column Conc IFACE boundname
     2     1   200  6.000000000000E+000      0 'Object0'  # Stress periods: Layer Row Column Conc IFACE boundname
     3     1   200  6.000000000000E+000      0 'Object0'  # Stress periods: Layer Row Column Conc IFACE boundname
     4     1   200  6.000000000000E+000      0 'Object0'  # Stress periods: Layer Row Column Conc IFACE boundname
     5     1   200  6.000000000000E+000      0 'Object0'  # Stress periods: Layer Row Column Conc IFACE boundname
     6     1   200  6.000000000000E+000      0 'Object0'  # Stress periods: Layer Row Column Conc IFACE boundname
     7     1   200  6.000000000000E+000      0 'Object0'  # Stress periods: Layer Row Column Conc IFACE boundname
     8     1   200  6.000000000000E+000      0 'Object0'  # Stress periods: Layer Row Column Conc IFACE boundname
     9     1   200  6.000000000000E+000      0 'Object0'  # Stress periods: Layer Row Column Conc IFACE boundname
    10     1   200  6.000000000000E+000      0 'Object0'  # Stress periods: Layer Row Column Conc IFACE boundname
    11     1   200  6.000000000000E+000      0 'Object0'  # Stress periods: Layer Row Column Conc IFACE boundname
    12     1   200  6.000000000000E+000      0 'Object0'  # Stress periods: Layer Row Column Conc IFACE boundname
    13     1   200  6.000000000000E+000      0 'Object0'  # Stress periods: Layer Row Column Conc IFACE boundname
    14     1   200  6.000000000000E+000      0 'Object0'  # Stress periods: Layer Row Column Conc IFACE boundname
    15     1   200  6.000000000000E+000      0 'Object0'  # Stress periods: Layer Row Column Conc IFACE boundname
    16     1   200  6.000000000000E+000      0 'Object0'  # Stress periods: Layer Row Column Conc IFACE boundname
    17     1   200  6.000000000000E+000      0 'Object0'  # Stress periods: Layer Row Column Conc IFACE boundname
    18     1   200  6.000000000000E+000      0 'Object0'  # Stress periods: Layer Row Column Conc IFACE boundname
    19     1   200  6.000000000000E+000      0 'Object0'  # Stress periods: Layer Row Column Conc IFACE boundname
    20     1   200  6.000000000000E+000      0 'Object0'  # Stress periods: Layer Row Column Conc IFACE boundname
    21     1   200  6.000000000000E+000      0 'Object0'  # Stress periods: Layer Row Column Conc IFACE boundname
    22     1   200  6.000000000000E+000      0 'Object0'  # Stress periods: Layer Row Column Conc IFACE boundname
    23     1   200  6.000000000000E+000      0 'Object0'  # Stress periods: Layer Row Column Conc IFACE boundname
    24     1   200  6.000000000000E+000      0 'Object0'  # Stress periods: Layer Row Column Conc IFACE boundname
    25     1   200  6.000000000000E+000      0 'Object0'  # Stress periods: Layer Row Column Conc IFACE boundname
    26     1   200  6.000000000000E+000      0 'Object0'  # Stress periods: Layer Row Column Conc IFACE boundname
    27     1   200  6.000000000000E+000      0 'Object0'  # Stress periods: Layer Row Column Conc IFACE boundname
    28     1   200  6.000000000000E+000      0 'Object0'  # Stress periods: Layer Row Column Conc IFACE boundname
    29     1   200  6.000000000000E+000      0 'Object0'  # Stress periods: Layer Row Column Conc IFACE boundname
    30     1   200  6.000000000000E+000      0 'Object0'  # Stress periods: Layer Row Column Conc IFACE boundname
    31     1   200  6.000000000000E+000      0 'Object0'  # Stress periods: Layer Row Column Conc IFACE boundname
    32     1   200  6.000000000000E+000      0 'Object0'  # Stress periods: Layer Row Column Conc IFACE boundname
    33     1   200  6.000000000000E+000      0 'Object0'  # Stress periods: Layer Row Column Conc IFACE boundname
    34     1   200  6.000000000000E+000      0 'Object0'  # Stress periods: Layer Row Column Conc IFACE boundname
    35     1   200  6.000000000000E+000      0 'Object0'  # Stress periods: Layer Row Column Conc IFACE boundname
    36     1   200  6.000000000000E+000      0 'Object0'  # Stress periods: Layer Row Column Conc IFACE boundname
    37     1   200  6.000000000000E+000      0 'Object0'  # Stress periods: Layer Row Column Conc IFACE boundname
    38     1   200  6.000000000000E+000      0 'Object0'  # Stress periods: Layer Row Column Conc IFACE boundname
    39     1   200  6.000000000000E+000      0 'Object0'  # Stress periods: Layer Row Column Conc IFACE boundname
    40     1   200  6.000000000000E+000      0 'Object0'  # Stress periods: Layer Row Column Conc IFACE boundname
    41     1   200  6.000000000000E+000      0 'Object0'  # Stress periods: Layer Row Column Conc IFACE boundname
    42     1   200  6.000000000000E+000      0 'Object0'  # Stress periods: Layer Row Column Conc IFACE boundname
    43     1   200  6.000000000000E+000      0 'Object0'  # Stress periods: Layer Row Column Conc IFACE boundname
    44     1   200  6.000000000000E+000      0 'Object0'  # Stress periods: Layer Row Column Conc IFACE boundname
    45     1   200  6.000000000000E+000      0 'Object0'  # Stress periods: Layer Row Column Conc IFACE boundname
    46     1   200  6.000000000000E+000      0 'Object0'  # Stress periods: Layer Row Column Conc IFACE boundname
    47     1   200  6.000000000000E+000      0 'Object0'  # Stress periods: Layer Row Column Conc IFACE boundname
    48     1   200  6.000000000000E+000      0 'Object0'  # Stress periods: Layer Row Column Conc IFACE boundname
    49     1   200  6.000000000000E+000      0 'Object0'  # Stress periods: Layer Row Column Conc IFACE boundname
    50     1   200  6.000000000000E+000      0 'Object0'  # Stress periods: Layer Row Column Conc IFACE boundname
    51     1   200  6.000000000000E+000      0 'Object0'  # Stress periods: Layer Row Column Conc IFACE boundname
    52     1   200  6.000000000000E+000      0 'Object0'  # Stress periods: Layer Row Column Conc IFACE boundname
    53     1   200  6.000000000000E+000      0 'Object0'  # Stress periods: Layer Row Column Conc IFACE boundname
    54     1   200  6.000000000000E+000      0 'Object0'  # Stress periods: Layer Row Column Conc IFACE boundname
    55     1   200  6.000000000000E+000      0 'Object0'  # Stress periods: Layer Row Column Conc IFACE boundname
    56     1   200  6.000000000000E+000      0 'Object0'  # Stress periods: Layer Row Column Conc IFACE boundname
    57     1   200  6.000000000000E+000      0 'Object0'  # Stress periods: Layer Row Column Conc IFACE boundname
    58     1   200  6.000000000000E+000      0 'Object0'  # Stress periods: Layer Row Column Conc IFACE boundname
    59     1   200  6.000000000000E+000      0 'Object0'  # Stress periods: Layer Row Column Conc IFACE boundname
    60     1   200  6.000000000000E+000      0 'Object0'  # Stress periods: Layer Row Column Conc IFACE boundname
    61     1   200  6.000000000000E+000      0 'Object0'  # Stress periods: Layer Row Column Conc IFACE boundname
    62     1   200  6.000000000000E+000      0 'Object0'  # Stress periods: Layer Row Column Conc IFACE boundname
    63     1   200  6.000000000000E+000      0 'Object0'  # Stress periods: Layer Row Column Conc IFACE boundname
    64     1   200  6.000000000000E+000      0 'Object0'  # Stress periods: Layer Row Column Conc IFACE boundname
    65     1   200  6.000000000000E+000      0 'Object0'  # Stress periods: Layer Row Column Conc IFACE boundname
    66     1   200  6.000000000000E+000      0 'Object0'  # Stress periods: Layer Row Column Conc IFACE boundname
    67     1   200  6.000000000000E+000      0 'Object0'  # Stress periods: Layer Row Column Conc IFACE boundname
    68     1   200  6.000000000000E+000      0 'Object0'  # Stress periods: Layer Row Column Conc IFACE boundname
    69     1   200  6.000000000000E+000      0 'Object0'  # Stress periods: Layer Row Column Conc IFACE boundname
    70     1   200  6.000000000000E+000      0 'Object0'  # Stress periods: Layer Row Column Conc IFACE boundname
    71     1   200  6.000000000000E+000      0 'Object0'  # Stress periods: Layer Row Column Conc IFACE boundname
    72     1   200  6.000000000000E+000      0 'Object0'  # Stress periods: Layer Row Column Conc IFACE boundname
    73     1   200  6.000000000000E+000      0 'Object0'  # Stress periods: Layer Row Column Conc IFACE boundname
    74     1   200  6.000000000000E+000      0 'Object0'  # Stress periods: Layer Row Column Conc IFACE boundname
    75     1   200  6.000000000000E+000      0 'Object0'  # Stress periods: Layer Row Column Conc IFACE boundname
    76     1   200  6.000000000000E+000      0 'Object0'  # Stress periods: Layer Row Column Conc IFACE boundname
    77     1   200  6.000000000000E+000      0 'Object0'  # Stress periods: Layer Row Column Conc IFACE boundname
    78     1   200  6.000000000000E+000      0 'Object0'  # Stress periods: Layer Row Column Conc IFACE boundname
    79     1   200  6.000000000000E+000      0 'Object0'  # Stress periods: Layer Row Column Conc IFACE boundname
    80     1   200  6.000000000000E+000      0 'Object0'  # Stress periods: Layer Row Column Conc IFACE boundname
    81     1   200  6.000000000000E+000      0 'Object0'  # Stress periods: Layer Row Column Conc IFACE boundname
    82     1   200  6.000000000000E+000      0 'Object0'  # Stress periods: Layer Row Column Conc IFACE boundname
    83     1   200  6.000000000000E+000      0 'Object0'  # Stress periods: Layer Row Column Conc IFACE boundname
    84     1   200  6.000000000000E+000      0 'Object0'  # Stress periods: Layer Row Column Conc IFACE boundname
    85     1   200  6.000000000000E+000      0 'Object0'  # Stress periods: Layer Row Column Conc IFACE boundname
    86     1   200  6.000000000000E+000      0 'Object0'  # Stress periods: Layer Row Column Conc IFACE boundname
    87     1   200  6.000000000000E+000      0 'Object0'  # Stress periods: Layer Row Column Conc IFACE boundname
    88     1   200  6.000000000000E+000      0 'Object0'  # Stress periods: Layer Row Column Conc IFACE boundname
    89     1   200  6.000000000000E+000      0 'Object0'  # Stress periods: Layer Row Column Conc IFACE boundname
    90     1   200  6.000000000000E+000      0 'Object0'  # Stress periods: Layer Row Column Conc IFACE boundname
    91     1   200  6.000000000000E+000      0 'Object0'  # Stress periods: Layer Row Column Conc IFACE boundname
    92     1   200  6.000000000000E+000      0 'Object0'  # Stress periods: Layer Row Column Conc IFACE boundname
    93     1   200  6.000000000000E+000      0 'Object0'  # Stress periods: Layer Row Column Conc IFACE boundname
    94     1   200  6.000000000000E+000      0 'Object0'  # Stress periods: Layer Row Column Conc IFACE boundname
    95     1   200  6.000000000000E+000      0 'Object0'  # Stress periods: Layer Row Column Conc IFACE boundname
    96     1   200  6.000000000000E+000      0 'Object0'  # Stress periods: Layer Row Column Conc IFACE boundname
    97     1   200  6.000000000000E+000      0 'Object0'  # Stress periods: Layer Row Column Conc IFACE boundname
    98     1   200  6.000000000000E+000      0 'Object0'  # Stress periods: Layer Row Column Conc IFACE boundname
    99     1   200  6.000000000000E+000      0 'Object0'  # Stress periods: Layer Row Column Conc IFACE boundname
   100     1   200  6.000000000000E+000      0 'Object0'  # Stress periods: Layer Row Column Conc IFACE boundname
END PERIOD 

