# Transport name file for Salinity file created on 7/28/2023 by ModelMuse version 5.1.1.34.
BEGIN OPTIONS
  LIST BuoyancyLAK.Salinity.lst
    PRINT_INPUT
    SAVE_FLOWS
END OPTIONS

BEGIN PACKAGES
  DIS6 BuoyancyLAK.Salinity.dis
  OC6 BuoyancyLAK.Salinity.oc
  LKT6 BuoyancyLAK.Salinity.lkt
  ADV6 BuoyancyLAK.Salinity.adv
  DSP6 BuoyancyLAK.Salinity.dsp
  SSM6 BuoyancyLAK.Salinity.ssm
  IC6 BuoyancyLAK.Salinity.ic
  MST6 BuoyancyLAK.Salinity.mst
END PACKAGES
