# SFR: MODFLOW-6 Stream Flow Routing package file created on 7/28/2023 by ModelMuse version 5.1.1.34.
BEGIN OPTIONS
    FLOW_PACKAGE_NAME SFR-1
    FLOW_PACKAGE_AUXILIARY_NAME  Salinity
    BOUNDNAMES
    PRINT_INPUT
    SAVE_FLOWS
    CONCENTRATION FILEOUT BuoyancySFR.Salinity.sft_conc
    BUDGET FILEOUT BuoyancySFR.Salinity.sft_budget
    BUDGETCSV FILEOUT BuoyancySFR.Salinity.sft_budget.csv
END OPTIONS

BEGIN PACKAGEDATA
# <rno> <strt> <boundname>
# defined by Object2
     1  3.500000000000E+001  Object2
     2  3.500000000000E+001  Object2
     3  3.500000000000E+001  Object2
     4  3.500000000000E+001  Object2
     5  3.500000000000E+001  Object2
     6  3.500000000000E+001  Object2
     7  3.500000000000E+001  Object2
     8  3.500000000000E+001  Object2
END PACKAGEDATA

BEGIN PERIOD      1
# rno sftsetting (defined by Object2)
     1 STATUS CONSTANT
     1 CONCENTRATION  3.500000000000E+001 
     2 STATUS CONSTANT
     2 CONCENTRATION  3.500000000000E+001 
     3 STATUS CONSTANT
     3 CONCENTRATION  3.500000000000E+001 
     4 STATUS CONSTANT
     4 CONCENTRATION  3.500000000000E+001 
     5 STATUS CONSTANT
     5 CONCENTRATION  3.500000000000E+001 
     6 STATUS CONSTANT
     6 CONCENTRATION  3.500000000000E+001 
     7 STATUS CONSTANT
     7 CONCENTRATION  3.500000000000E+001 
     8 STATUS CONSTANT
     8 CONCENTRATION  3.500000000000E+001 
END PERIOD 

