# Initial concentration file for Salinity file created on 7/28/2023 by ModelMuse version 5.1.1.34.
BEGIN GRIDDATA
  STRT LAYERED IPRN    12
    CONSTANT   0.000000000000E+000  # STRT Aquifer Layer 1

    CONSTANT   0.000000000000E+000  # STRT Aquifer Layer 2

    CONSTANT   0.000000000000E+000  # STRT Aquifer Layer 3

    CONSTANT   0.000000000000E+000  # STRT Aquifer Layer 4

    CONSTANT   0.000000000000E+000  # STRT Aquifer Layer 5

    CONSTANT   0.000000000000E+000  # STRT Aquifer Layer 6

    CONSTANT   0.000000000000E+000  # STRT Aquifer Layer 7

    CONSTANT   0.000000000000E+000  # STRT Aquifer Layer 8

    CONSTANT   0.000000000000E+000  # STRT Aquifer Layer 9

    CONSTANT   0.000000000000E+000  # STRT Aquifer Layer 10

    CONSTANT   0.000000000000E+000  # STRT Aquifer Layer 11

    CONSTANT   0.000000000000E+000  # STRT Aquifer Layer 12

    CONSTANT   0.000000000000E+000  # STRT Aquifer Layer 13

    CONSTANT   0.000000000000E+000  # STRT Aquifer Layer 14

    CONSTANT   0.000000000000E+000  # STRT Aquifer Layer 15

    CONSTANT   0.000000000000E+000  # STRT Aquifer Layer 16

    CONSTANT   0.000000000000E+000  # STRT Aquifer Layer 17

    CONSTANT   0.000000000000E+000  # STRT Aquifer Layer 18

    CONSTANT   0.000000000000E+000  # STRT Aquifer Layer 19

    CONSTANT   0.000000000000E+000  # STRT Aquifer Layer 20

    CONSTANT   0.000000000000E+000  # STRT Aquifer Layer 21

    CONSTANT   0.000000000000E+000  # STRT Aquifer Layer 22

    CONSTANT   0.000000000000E+000  # STRT Aquifer Layer 23

    CONSTANT   0.000000000000E+000  # STRT Aquifer Layer 24

    CONSTANT   0.000000000000E+000  # STRT Aquifer Layer 25

    CONSTANT   0.000000000000E+000  # STRT Aquifer Layer 26

    CONSTANT   0.000000000000E+000  # STRT Aquifer Layer 27

    CONSTANT   0.000000000000E+000  # STRT Aquifer Layer 28

    CONSTANT   0.000000000000E+000  # STRT Aquifer Layer 29

    CONSTANT   0.000000000000E+000  # STRT Aquifer Layer 30

    CONSTANT   0.000000000000E+000  # STRT Aquifer Layer 31

    CONSTANT   0.000000000000E+000  # STRT Aquifer Layer 32

    CONSTANT   0.000000000000E+000  # STRT Aquifer Layer 33

    CONSTANT   0.000000000000E+000  # STRT Aquifer Layer 34

    CONSTANT   0.000000000000E+000  # STRT Aquifer Layer 35

    CONSTANT   0.000000000000E+000  # STRT Aquifer Layer 36

    CONSTANT   0.000000000000E+000  # STRT Aquifer Layer 37

    CONSTANT   0.000000000000E+000  # STRT Aquifer Layer 38

    CONSTANT   0.000000000000E+000  # STRT Aquifer Layer 39

    CONSTANT   0.000000000000E+000  # STRT Aquifer Layer 40

    CONSTANT   0.000000000000E+000  # STRT Aquifer Layer 41

    CONSTANT   0.000000000000E+000  # STRT Aquifer Layer 42

    CONSTANT   0.000000000000E+000  # STRT Aquifer Layer 43

    CONSTANT   0.000000000000E+000  # STRT Aquifer Layer 44

    CONSTANT   0.000000000000E+000  # STRT Aquifer Layer 45

    CONSTANT   0.000000000000E+000  # STRT Aquifer Layer 46

    CONSTANT   0.000000000000E+000  # STRT Aquifer Layer 47

    CONSTANT   0.000000000000E+000  # STRT Aquifer Layer 48

    CONSTANT   0.000000000000E+000  # STRT Aquifer Layer 49

    CONSTANT   0.000000000000E+000  # STRT Aquifer Layer 50

    CONSTANT   0.000000000000E+000  # STRT Aquifer Layer 51

    CONSTANT   0.000000000000E+000  # STRT Aquifer Layer 52

    CONSTANT   0.000000000000E+000  # STRT Aquifer Layer 53

    CONSTANT   0.000000000000E+000  # STRT Aquifer Layer 54

    CONSTANT   0.000000000000E+000  # STRT Aquifer Layer 55

    CONSTANT   0.000000000000E+000  # STRT Aquifer Layer 56

    CONSTANT   0.000000000000E+000  # STRT Aquifer Layer 57

    CONSTANT   0.000000000000E+000  # STRT Aquifer Layer 58

    CONSTANT   0.000000000000E+000  # STRT Aquifer Layer 59

    CONSTANT   0.000000000000E+000  # STRT Aquifer Layer 60

    CONSTANT   0.000000000000E+000  # STRT Aquifer Layer 61

    CONSTANT   0.000000000000E+000  # STRT Aquifer Layer 62

    CONSTANT   0.000000000000E+000  # STRT Aquifer Layer 63

    CONSTANT   0.000000000000E+000  # STRT Aquifer Layer 64

    CONSTANT   0.000000000000E+000  # STRT Aquifer Layer 65

    CONSTANT   0.000000000000E+000  # STRT Aquifer Layer 66

    CONSTANT   0.000000000000E+000  # STRT Aquifer Layer 67

    CONSTANT   0.000000000000E+000  # STRT Aquifer Layer 68

    CONSTANT   0.000000000000E+000  # STRT Aquifer Layer 69

    CONSTANT   0.000000000000E+000  # STRT Aquifer Layer 70

    CONSTANT   0.000000000000E+000  # STRT Aquifer Layer 71

    CONSTANT   0.000000000000E+000  # STRT Aquifer Layer 72

    CONSTANT   0.000000000000E+000  # STRT Aquifer Layer 73

    CONSTANT   0.000000000000E+000  # STRT Aquifer Layer 74

    CONSTANT   0.000000000000E+000  # STRT Aquifer Layer 75

    CONSTANT   0.000000000000E+000  # STRT Aquifer Layer 76

    CONSTANT   0.000000000000E+000  # STRT Aquifer Layer 77

    CONSTANT   0.000000000000E+000  # STRT Aquifer Layer 78

    CONSTANT   0.000000000000E+000  # STRT Aquifer Layer 79

    CONSTANT   0.000000000000E+000  # STRT Aquifer Layer 80

    CONSTANT   0.000000000000E+000  # STRT Aquifer Layer 81

    CONSTANT   0.000000000000E+000  # STRT Aquifer Layer 82

    CONSTANT   0.000000000000E+000  # STRT Aquifer Layer 83

    CONSTANT   0.000000000000E+000  # STRT Aquifer Layer 84

    CONSTANT   0.000000000000E+000  # STRT Aquifer Layer 85

    CONSTANT   0.000000000000E+000  # STRT Aquifer Layer 86

    CONSTANT   0.000000000000E+000  # STRT Aquifer Layer 87

    CONSTANT   0.000000000000E+000  # STRT Aquifer Layer 88

    CONSTANT   0.000000000000E+000  # STRT Aquifer Layer 89

    CONSTANT   0.000000000000E+000  # STRT Aquifer Layer 90

    CONSTANT   0.000000000000E+000  # STRT Aquifer Layer 91

    CONSTANT   0.000000000000E+000  # STRT Aquifer Layer 92

    CONSTANT   0.000000000000E+000  # STRT Aquifer Layer 93

    CONSTANT   0.000000000000E+000  # STRT Aquifer Layer 94

    CONSTANT   0.000000000000E+000  # STRT Aquifer Layer 95

    CONSTANT   0.000000000000E+000  # STRT Aquifer Layer 96

    CONSTANT   0.000000000000E+000  # STRT Aquifer Layer 97

    CONSTANT   0.000000000000E+000  # STRT Aquifer Layer 98

    CONSTANT   0.000000000000E+000  # STRT Aquifer Layer 99

    CONSTANT   0.000000000000E+000  # STRT Aquifer Layer 100

END GRIDDATA

