# ADV: GWT Advection Package file created on 2/15/2024 by ModelMuse version 5.1.1.55.
BEGIN OPTIONS
  SCHEME upstream
END OPTIONS

