# GHB: General-Head Boundary package file created on 2/15/2024 by ModelMuse version 5.1.1.55.
BEGIN OPTIONS
    AUXILIARY IFACE Salinity Temperature Density Viscosity
    BOUNDNAMES
    PRINT_INPUT
    SAVE_FLOWS
END OPTIONS

BEGIN DIMENSIONS
  MAXBOUND   100
END DIMENSIONS

BEGIN PERIOD      1
     1     1   200  1.000000000000E+003   2.000000000000E+001      0  3.500000000000E+001   5.000000000000E+000   1.032000000000E+003   8.950000000000E-004  'Object0'  # Data Set 6: Layer Row Column Bhead Cond IFACE Salinity Temperature Density Viscosity boundname
     2     1   200  1.000000000000E+003   2.000000000000E+001      0  3.500000000000E+001   5.000000000000E+000   1.032000000000E+003   8.950000000000E-004  'Object0'  # Data Set 6: Layer Row Column Bhead Cond IFACE Salinity Temperature Density Viscosity boundname
     3     1   200  1.000000000000E+003   2.000000000000E+001      0  3.500000000000E+001   5.000000000000E+000   1.032000000000E+003   8.950000000000E-004  'Object0'  # Data Set 6: Layer Row Column Bhead Cond IFACE Salinity Temperature Density Viscosity boundname
     4     1   200  1.000000000000E+003   2.000000000000E+001      0  3.500000000000E+001   5.000000000000E+000   1.032000000000E+003   8.950000000000E-004  'Object0'  # Data Set 6: Layer Row Column Bhead Cond IFACE Salinity Temperature Density Viscosity boundname
     5     1   200  1.000000000000E+003   2.000000000000E+001      0  3.500000000000E+001   5.000000000000E+000   1.032000000000E+003   8.950000000000E-004  'Object0'  # Data Set 6: Layer Row Column Bhead Cond IFACE Salinity Temperature Density Viscosity boundname
     6     1   200  1.000000000000E+003   2.000000000000E+001      0  3.500000000000E+001   5.000000000000E+000   1.032000000000E+003   8.950000000000E-004  'Object0'  # Data Set 6: Layer Row Column Bhead Cond IFACE Salinity Temperature Density Viscosity boundname
     7     1   200  1.000000000000E+003   2.000000000000E+001      0  3.500000000000E+001   5.000000000000E+000   1.032000000000E+003   8.950000000000E-004  'Object0'  # Data Set 6: Layer Row Column Bhead Cond IFACE Salinity Temperature Density Viscosity boundname
     8     1   200  1.000000000000E+003   2.000000000000E+001      0  3.500000000000E+001   5.000000000000E+000   1.032000000000E+003   8.950000000000E-004  'Object0'  # Data Set 6: Layer Row Column Bhead Cond IFACE Salinity Temperature Density Viscosity boundname
     9     1   200  1.000000000000E+003   2.000000000000E+001      0  3.500000000000E+001   5.000000000000E+000   1.032000000000E+003   8.950000000000E-004  'Object0'  # Data Set 6: Layer Row Column Bhead Cond IFACE Salinity Temperature Density Viscosity boundname
    10     1   200  1.000000000000E+003   2.000000000000E+001      0  3.500000000000E+001   5.000000000000E+000   1.032000000000E+003   8.950000000000E-004  'Object0'  # Data Set 6: Layer Row Column Bhead Cond IFACE Salinity Temperature Density Viscosity boundname
    11     1   200  1.000000000000E+003   2.000000000000E+001      0  3.500000000000E+001   5.000000000000E+000   1.032000000000E+003   8.950000000000E-004  'Object0'  # Data Set 6: Layer Row Column Bhead Cond IFACE Salinity Temperature Density Viscosity boundname
    12     1   200  1.000000000000E+003   2.000000000000E+001      0  3.500000000000E+001   5.000000000000E+000   1.032000000000E+003   8.950000000000E-004  'Object0'  # Data Set 6: Layer Row Column Bhead Cond IFACE Salinity Temperature Density Viscosity boundname
    13     1   200  1.000000000000E+003   2.000000000000E+001      0  3.500000000000E+001   5.000000000000E+000   1.032000000000E+003   8.950000000000E-004  'Object0'  # Data Set 6: Layer Row Column Bhead Cond IFACE Salinity Temperature Density Viscosity boundname
    14     1   200  1.000000000000E+003   2.000000000000E+001      0  3.500000000000E+001   5.000000000000E+000   1.032000000000E+003   8.950000000000E-004  'Object0'  # Data Set 6: Layer Row Column Bhead Cond IFACE Salinity Temperature Density Viscosity boundname
    15     1   200  1.000000000000E+003   2.000000000000E+001      0  3.500000000000E+001   5.000000000000E+000   1.032000000000E+003   8.950000000000E-004  'Object0'  # Data Set 6: Layer Row Column Bhead Cond IFACE Salinity Temperature Density Viscosity boundname
    16     1   200  1.000000000000E+003   2.000000000000E+001      0  3.500000000000E+001   5.000000000000E+000   1.032000000000E+003   8.950000000000E-004  'Object0'  # Data Set 6: Layer Row Column Bhead Cond IFACE Salinity Temperature Density Viscosity boundname
    17     1   200  1.000000000000E+003   2.000000000000E+001      0  3.500000000000E+001   5.000000000000E+000   1.032000000000E+003   8.950000000000E-004  'Object0'  # Data Set 6: Layer Row Column Bhead Cond IFACE Salinity Temperature Density Viscosity boundname
    18     1   200  1.000000000000E+003   2.000000000000E+001      0  3.500000000000E+001   5.000000000000E+000   1.032000000000E+003   8.950000000000E-004  'Object0'  # Data Set 6: Layer Row Column Bhead Cond IFACE Salinity Temperature Density Viscosity boundname
    19     1   200  1.000000000000E+003   2.000000000000E+001      0  3.500000000000E+001   5.000000000000E+000   1.032000000000E+003   8.950000000000E-004  'Object0'  # Data Set 6: Layer Row Column Bhead Cond IFACE Salinity Temperature Density Viscosity boundname
    20     1   200  1.000000000000E+003   2.000000000000E+001      0  3.500000000000E+001   5.000000000000E+000   1.032000000000E+003   8.950000000000E-004  'Object0'  # Data Set 6: Layer Row Column Bhead Cond IFACE Salinity Temperature Density Viscosity boundname
    21     1   200  1.000000000000E+003   2.000000000000E+001      0  3.500000000000E+001   5.000000000000E+000   1.032000000000E+003   8.950000000000E-004  'Object0'  # Data Set 6: Layer Row Column Bhead Cond IFACE Salinity Temperature Density Viscosity boundname
    22     1   200  1.000000000000E+003   2.000000000000E+001      0  3.500000000000E+001   5.000000000000E+000   1.032000000000E+003   8.950000000000E-004  'Object0'  # Data Set 6: Layer Row Column Bhead Cond IFACE Salinity Temperature Density Viscosity boundname
    23     1   200  1.000000000000E+003   2.000000000000E+001      0  3.500000000000E+001   5.000000000000E+000   1.032000000000E+003   8.950000000000E-004  'Object0'  # Data Set 6: Layer Row Column Bhead Cond IFACE Salinity Temperature Density Viscosity boundname
    24     1   200  1.000000000000E+003   2.000000000000E+001      0  3.500000000000E+001   5.000000000000E+000   1.032000000000E+003   8.950000000000E-004  'Object0'  # Data Set 6: Layer Row Column Bhead Cond IFACE Salinity Temperature Density Viscosity boundname
    25     1   200  1.000000000000E+003   2.000000000000E+001      0  3.500000000000E+001   5.000000000000E+000   1.032000000000E+003   8.950000000000E-004  'Object0'  # Data Set 6: Layer Row Column Bhead Cond IFACE Salinity Temperature Density Viscosity boundname
    26     1   200  1.000000000000E+003   2.000000000000E+001      0  3.500000000000E+001   5.000000000000E+000   1.032000000000E+003   8.950000000000E-004  'Object0'  # Data Set 6: Layer Row Column Bhead Cond IFACE Salinity Temperature Density Viscosity boundname
    27     1   200  1.000000000000E+003   2.000000000000E+001      0  3.500000000000E+001   5.000000000000E+000   1.032000000000E+003   8.950000000000E-004  'Object0'  # Data Set 6: Layer Row Column Bhead Cond IFACE Salinity Temperature Density Viscosity boundname
    28     1   200  1.000000000000E+003   2.000000000000E+001      0  3.500000000000E+001   5.000000000000E+000   1.032000000000E+003   8.950000000000E-004  'Object0'  # Data Set 6: Layer Row Column Bhead Cond IFACE Salinity Temperature Density Viscosity boundname
    29     1   200  1.000000000000E+003   2.000000000000E+001      0  3.500000000000E+001   5.000000000000E+000   1.032000000000E+003   8.950000000000E-004  'Object0'  # Data Set 6: Layer Row Column Bhead Cond IFACE Salinity Temperature Density Viscosity boundname
    30     1   200  1.000000000000E+003   2.000000000000E+001      0  3.500000000000E+001   5.000000000000E+000   1.032000000000E+003   8.950000000000E-004  'Object0'  # Data Set 6: Layer Row Column Bhead Cond IFACE Salinity Temperature Density Viscosity boundname
    31     1   200  1.000000000000E+003   2.000000000000E+001      0  3.500000000000E+001   5.000000000000E+000   1.032000000000E+003   8.950000000000E-004  'Object0'  # Data Set 6: Layer Row Column Bhead Cond IFACE Salinity Temperature Density Viscosity boundname
    32     1   200  1.000000000000E+003   2.000000000000E+001      0  3.500000000000E+001   5.000000000000E+000   1.032000000000E+003   8.950000000000E-004  'Object0'  # Data Set 6: Layer Row Column Bhead Cond IFACE Salinity Temperature Density Viscosity boundname
    33     1   200  1.000000000000E+003   2.000000000000E+001      0  3.500000000000E+001   5.000000000000E+000   1.032000000000E+003   8.950000000000E-004  'Object0'  # Data Set 6: Layer Row Column Bhead Cond IFACE Salinity Temperature Density Viscosity boundname
    34     1   200  1.000000000000E+003   2.000000000000E+001      0  3.500000000000E+001   5.000000000000E+000   1.032000000000E+003   8.950000000000E-004  'Object0'  # Data Set 6: Layer Row Column Bhead Cond IFACE Salinity Temperature Density Viscosity boundname
    35     1   200  1.000000000000E+003   2.000000000000E+001      0  3.500000000000E+001   5.000000000000E+000   1.032000000000E+003   8.950000000000E-004  'Object0'  # Data Set 6: Layer Row Column Bhead Cond IFACE Salinity Temperature Density Viscosity boundname
    36     1   200  1.000000000000E+003   2.000000000000E+001      0  3.500000000000E+001   5.000000000000E+000   1.032000000000E+003   8.950000000000E-004  'Object0'  # Data Set 6: Layer Row Column Bhead Cond IFACE Salinity Temperature Density Viscosity boundname
    37     1   200  1.000000000000E+003   2.000000000000E+001      0  3.500000000000E+001   5.000000000000E+000   1.032000000000E+003   8.950000000000E-004  'Object0'  # Data Set 6: Layer Row Column Bhead Cond IFACE Salinity Temperature Density Viscosity boundname
    38     1   200  1.000000000000E+003   2.000000000000E+001      0  3.500000000000E+001   5.000000000000E+000   1.032000000000E+003   8.950000000000E-004  'Object0'  # Data Set 6: Layer Row Column Bhead Cond IFACE Salinity Temperature Density Viscosity boundname
    39     1   200  1.000000000000E+003   2.000000000000E+001      0  3.500000000000E+001   5.000000000000E+000   1.032000000000E+003   8.950000000000E-004  'Object0'  # Data Set 6: Layer Row Column Bhead Cond IFACE Salinity Temperature Density Viscosity boundname
    40     1   200  1.000000000000E+003   2.000000000000E+001      0  3.500000000000E+001   5.000000000000E+000   1.032000000000E+003   8.950000000000E-004  'Object0'  # Data Set 6: Layer Row Column Bhead Cond IFACE Salinity Temperature Density Viscosity boundname
    41     1   200  1.000000000000E+003   2.000000000000E+001      0  3.500000000000E+001   5.000000000000E+000   1.032000000000E+003   8.950000000000E-004  'Object0'  # Data Set 6: Layer Row Column Bhead Cond IFACE Salinity Temperature Density Viscosity boundname
    42     1   200  1.000000000000E+003   2.000000000000E+001      0  3.500000000000E+001   5.000000000000E+000   1.032000000000E+003   8.950000000000E-004  'Object0'  # Data Set 6: Layer Row Column Bhead Cond IFACE Salinity Temperature Density Viscosity boundname
    43     1   200  1.000000000000E+003   2.000000000000E+001      0  3.500000000000E+001   5.000000000000E+000   1.032000000000E+003   8.950000000000E-004  'Object0'  # Data Set 6: Layer Row Column Bhead Cond IFACE Salinity Temperature Density Viscosity boundname
    44     1   200  1.000000000000E+003   2.000000000000E+001      0  3.500000000000E+001   5.000000000000E+000   1.032000000000E+003   8.950000000000E-004  'Object0'  # Data Set 6: Layer Row Column Bhead Cond IFACE Salinity Temperature Density Viscosity boundname
    45     1   200  1.000000000000E+003   2.000000000000E+001      0  3.500000000000E+001   5.000000000000E+000   1.032000000000E+003   8.950000000000E-004  'Object0'  # Data Set 6: Layer Row Column Bhead Cond IFACE Salinity Temperature Density Viscosity boundname
    46     1   200  1.000000000000E+003   2.000000000000E+001      0  3.500000000000E+001   5.000000000000E+000   1.032000000000E+003   8.950000000000E-004  'Object0'  # Data Set 6: Layer Row Column Bhead Cond IFACE Salinity Temperature Density Viscosity boundname
    47     1   200  1.000000000000E+003   2.000000000000E+001      0  3.500000000000E+001   5.000000000000E+000   1.032000000000E+003   8.950000000000E-004  'Object0'  # Data Set 6: Layer Row Column Bhead Cond IFACE Salinity Temperature Density Viscosity boundname
    48     1   200  1.000000000000E+003   2.000000000000E+001      0  3.500000000000E+001   5.000000000000E+000   1.032000000000E+003   8.950000000000E-004  'Object0'  # Data Set 6: Layer Row Column Bhead Cond IFACE Salinity Temperature Density Viscosity boundname
    49     1   200  1.000000000000E+003   2.000000000000E+001      0  3.500000000000E+001   5.000000000000E+000   1.032000000000E+003   8.950000000000E-004  'Object0'  # Data Set 6: Layer Row Column Bhead Cond IFACE Salinity Temperature Density Viscosity boundname
    50     1   200  1.000000000000E+003   2.000000000000E+001      0  3.500000000000E+001   5.000000000000E+000   1.032000000000E+003   8.950000000000E-004  'Object0'  # Data Set 6: Layer Row Column Bhead Cond IFACE Salinity Temperature Density Viscosity boundname
    51     1   200  1.000000000000E+003   2.000000000000E+001      0  3.500000000000E+001   5.000000000000E+000   1.032000000000E+003   8.950000000000E-004  'Object0'  # Data Set 6: Layer Row Column Bhead Cond IFACE Salinity Temperature Density Viscosity boundname
    52     1   200  1.000000000000E+003   2.000000000000E+001      0  3.500000000000E+001   5.000000000000E+000   1.032000000000E+003   8.950000000000E-004  'Object0'  # Data Set 6: Layer Row Column Bhead Cond IFACE Salinity Temperature Density Viscosity boundname
    53     1   200  1.000000000000E+003   2.000000000000E+001      0  3.500000000000E+001   5.000000000000E+000   1.032000000000E+003   8.950000000000E-004  'Object0'  # Data Set 6: Layer Row Column Bhead Cond IFACE Salinity Temperature Density Viscosity boundname
    54     1   200  1.000000000000E+003   2.000000000000E+001      0  3.500000000000E+001   5.000000000000E+000   1.032000000000E+003   8.950000000000E-004  'Object0'  # Data Set 6: Layer Row Column Bhead Cond IFACE Salinity Temperature Density Viscosity boundname
    55     1   200  1.000000000000E+003   2.000000000000E+001      0  3.500000000000E+001   5.000000000000E+000   1.032000000000E+003   8.950000000000E-004  'Object0'  # Data Set 6: Layer Row Column Bhead Cond IFACE Salinity Temperature Density Viscosity boundname
    56     1   200  1.000000000000E+003   2.000000000000E+001      0  3.500000000000E+001   5.000000000000E+000   1.032000000000E+003   8.950000000000E-004  'Object0'  # Data Set 6: Layer Row Column Bhead Cond IFACE Salinity Temperature Density Viscosity boundname
    57     1   200  1.000000000000E+003   2.000000000000E+001      0  3.500000000000E+001   5.000000000000E+000   1.032000000000E+003   8.950000000000E-004  'Object0'  # Data Set 6: Layer Row Column Bhead Cond IFACE Salinity Temperature Density Viscosity boundname
    58     1   200  1.000000000000E+003   2.000000000000E+001      0  3.500000000000E+001   5.000000000000E+000   1.032000000000E+003   8.950000000000E-004  'Object0'  # Data Set 6: Layer Row Column Bhead Cond IFACE Salinity Temperature Density Viscosity boundname
    59     1   200  1.000000000000E+003   2.000000000000E+001      0  3.500000000000E+001   5.000000000000E+000   1.032000000000E+003   8.950000000000E-004  'Object0'  # Data Set 6: Layer Row Column Bhead Cond IFACE Salinity Temperature Density Viscosity boundname
    60     1   200  1.000000000000E+003   2.000000000000E+001      0  3.500000000000E+001   5.000000000000E+000   1.032000000000E+003   8.950000000000E-004  'Object0'  # Data Set 6: Layer Row Column Bhead Cond IFACE Salinity Temperature Density Viscosity boundname
    61     1   200  1.000000000000E+003   2.000000000000E+001      0  3.500000000000E+001   5.000000000000E+000   1.032000000000E+003   8.950000000000E-004  'Object0'  # Data Set 6: Layer Row Column Bhead Cond IFACE Salinity Temperature Density Viscosity boundname
    62     1   200  1.000000000000E+003   2.000000000000E+001      0  3.500000000000E+001   5.000000000000E+000   1.032000000000E+003   8.950000000000E-004  'Object0'  # Data Set 6: Layer Row Column Bhead Cond IFACE Salinity Temperature Density Viscosity boundname
    63     1   200  1.000000000000E+003   2.000000000000E+001      0  3.500000000000E+001   5.000000000000E+000   1.032000000000E+003   8.950000000000E-004  'Object0'  # Data Set 6: Layer Row Column Bhead Cond IFACE Salinity Temperature Density Viscosity boundname
    64     1   200  1.000000000000E+003   2.000000000000E+001      0  3.500000000000E+001   5.000000000000E+000   1.032000000000E+003   8.950000000000E-004  'Object0'  # Data Set 6: Layer Row Column Bhead Cond IFACE Salinity Temperature Density Viscosity boundname
    65     1   200  1.000000000000E+003   2.000000000000E+001      0  3.500000000000E+001   5.000000000000E+000   1.032000000000E+003   8.950000000000E-004  'Object0'  # Data Set 6: Layer Row Column Bhead Cond IFACE Salinity Temperature Density Viscosity boundname
    66     1   200  1.000000000000E+003   2.000000000000E+001      0  3.500000000000E+001   5.000000000000E+000   1.032000000000E+003   8.950000000000E-004  'Object0'  # Data Set 6: Layer Row Column Bhead Cond IFACE Salinity Temperature Density Viscosity boundname
    67     1   200  1.000000000000E+003   2.000000000000E+001      0  3.500000000000E+001   5.000000000000E+000   1.032000000000E+003   8.950000000000E-004  'Object0'  # Data Set 6: Layer Row Column Bhead Cond IFACE Salinity Temperature Density Viscosity boundname
    68     1   200  1.000000000000E+003   2.000000000000E+001      0  3.500000000000E+001   5.000000000000E+000   1.032000000000E+003   8.950000000000E-004  'Object0'  # Data Set 6: Layer Row Column Bhead Cond IFACE Salinity Temperature Density Viscosity boundname
    69     1   200  1.000000000000E+003   2.000000000000E+001      0  3.500000000000E+001   5.000000000000E+000   1.032000000000E+003   8.950000000000E-004  'Object0'  # Data Set 6: Layer Row Column Bhead Cond IFACE Salinity Temperature Density Viscosity boundname
    70     1   200  1.000000000000E+003   2.000000000000E+001      0  3.500000000000E+001   5.000000000000E+000   1.032000000000E+003   8.950000000000E-004  'Object0'  # Data Set 6: Layer Row Column Bhead Cond IFACE Salinity Temperature Density Viscosity boundname
    71     1   200  1.000000000000E+003   2.000000000000E+001      0  3.500000000000E+001   5.000000000000E+000   1.032000000000E+003   8.950000000000E-004  'Object0'  # Data Set 6: Layer Row Column Bhead Cond IFACE Salinity Temperature Density Viscosity boundname
    72     1   200  1.000000000000E+003   2.000000000000E+001      0  3.500000000000E+001   5.000000000000E+000   1.032000000000E+003   8.950000000000E-004  'Object0'  # Data Set 6: Layer Row Column Bhead Cond IFACE Salinity Temperature Density Viscosity boundname
    73     1   200  1.000000000000E+003   2.000000000000E+001      0  3.500000000000E+001   5.000000000000E+000   1.032000000000E+003   8.950000000000E-004  'Object0'  # Data Set 6: Layer Row Column Bhead Cond IFACE Salinity Temperature Density Viscosity boundname
    74     1   200  1.000000000000E+003   2.000000000000E+001      0  3.500000000000E+001   5.000000000000E+000   1.032000000000E+003   8.950000000000E-004  'Object0'  # Data Set 6: Layer Row Column Bhead Cond IFACE Salinity Temperature Density Viscosity boundname
    75     1   200  1.000000000000E+003   2.000000000000E+001      0  3.500000000000E+001   5.000000000000E+000   1.032000000000E+003   8.950000000000E-004  'Object0'  # Data Set 6: Layer Row Column Bhead Cond IFACE Salinity Temperature Density Viscosity boundname
    76     1   200  1.000000000000E+003   2.000000000000E+001      0  3.500000000000E+001   5.000000000000E+000   1.032000000000E+003   8.950000000000E-004  'Object0'  # Data Set 6: Layer Row Column Bhead Cond IFACE Salinity Temperature Density Viscosity boundname
    77     1   200  1.000000000000E+003   2.000000000000E+001      0  3.500000000000E+001   5.000000000000E+000   1.032000000000E+003   8.950000000000E-004  'Object0'  # Data Set 6: Layer Row Column Bhead Cond IFACE Salinity Temperature Density Viscosity boundname
    78     1   200  1.000000000000E+003   2.000000000000E+001      0  3.500000000000E+001   5.000000000000E+000   1.032000000000E+003   8.950000000000E-004  'Object0'  # Data Set 6: Layer Row Column Bhead Cond IFACE Salinity Temperature Density Viscosity boundname
    79     1   200  1.000000000000E+003   2.000000000000E+001      0  3.500000000000E+001   5.000000000000E+000   1.032000000000E+003   8.950000000000E-004  'Object0'  # Data Set 6: Layer Row Column Bhead Cond IFACE Salinity Temperature Density Viscosity boundname
    80     1   200  1.000000000000E+003   2.000000000000E+001      0  3.500000000000E+001   5.000000000000E+000   1.032000000000E+003   8.950000000000E-004  'Object0'  # Data Set 6: Layer Row Column Bhead Cond IFACE Salinity Temperature Density Viscosity boundname
    81     1   200  1.000000000000E+003   2.000000000000E+001      0  3.500000000000E+001   5.000000000000E+000   1.032000000000E+003   8.950000000000E-004  'Object0'  # Data Set 6: Layer Row Column Bhead Cond IFACE Salinity Temperature Density Viscosity boundname
    82     1   200  1.000000000000E+003   2.000000000000E+001      0  3.500000000000E+001   5.000000000000E+000   1.032000000000E+003   8.950000000000E-004  'Object0'  # Data Set 6: Layer Row Column Bhead Cond IFACE Salinity Temperature Density Viscosity boundname
    83     1   200  1.000000000000E+003   2.000000000000E+001      0  3.500000000000E+001   5.000000000000E+000   1.032000000000E+003   8.950000000000E-004  'Object0'  # Data Set 6: Layer Row Column Bhead Cond IFACE Salinity Temperature Density Viscosity boundname
    84     1   200  1.000000000000E+003   2.000000000000E+001      0  3.500000000000E+001   5.000000000000E+000   1.032000000000E+003   8.950000000000E-004  'Object0'  # Data Set 6: Layer Row Column Bhead Cond IFACE Salinity Temperature Density Viscosity boundname
    85     1   200  1.000000000000E+003   2.000000000000E+001      0  3.500000000000E+001   5.000000000000E+000   1.032000000000E+003   8.950000000000E-004  'Object0'  # Data Set 6: Layer Row Column Bhead Cond IFACE Salinity Temperature Density Viscosity boundname
    86     1   200  1.000000000000E+003   2.000000000000E+001      0  3.500000000000E+001   5.000000000000E+000   1.032000000000E+003   8.950000000000E-004  'Object0'  # Data Set 6: Layer Row Column Bhead Cond IFACE Salinity Temperature Density Viscosity boundname
    87     1   200  1.000000000000E+003   2.000000000000E+001      0  3.500000000000E+001   5.000000000000E+000   1.032000000000E+003   8.950000000000E-004  'Object0'  # Data Set 6: Layer Row Column Bhead Cond IFACE Salinity Temperature Density Viscosity boundname
    88     1   200  1.000000000000E+003   2.000000000000E+001      0  3.500000000000E+001   5.000000000000E+000   1.032000000000E+003   8.950000000000E-004  'Object0'  # Data Set 6: Layer Row Column Bhead Cond IFACE Salinity Temperature Density Viscosity boundname
    89     1   200  1.000000000000E+003   2.000000000000E+001      0  3.500000000000E+001   5.000000000000E+000   1.032000000000E+003   8.950000000000E-004  'Object0'  # Data Set 6: Layer Row Column Bhead Cond IFACE Salinity Temperature Density Viscosity boundname
    90     1   200  1.000000000000E+003   2.000000000000E+001      0  3.500000000000E+001   5.000000000000E+000   1.032000000000E+003   8.950000000000E-004  'Object0'  # Data Set 6: Layer Row Column Bhead Cond IFACE Salinity Temperature Density Viscosity boundname
    91     1   200  1.000000000000E+003   2.000000000000E+001      0  3.500000000000E+001   5.000000000000E+000   1.032000000000E+003   8.950000000000E-004  'Object0'  # Data Set 6: Layer Row Column Bhead Cond IFACE Salinity Temperature Density Viscosity boundname
    92     1   200  1.000000000000E+003   2.000000000000E+001      0  3.500000000000E+001   5.000000000000E+000   1.032000000000E+003   8.950000000000E-004  'Object0'  # Data Set 6: Layer Row Column Bhead Cond IFACE Salinity Temperature Density Viscosity boundname
    93     1   200  1.000000000000E+003   2.000000000000E+001      0  3.500000000000E+001   5.000000000000E+000   1.032000000000E+003   8.950000000000E-004  'Object0'  # Data Set 6: Layer Row Column Bhead Cond IFACE Salinity Temperature Density Viscosity boundname
    94     1   200  1.000000000000E+003   2.000000000000E+001      0  3.500000000000E+001   5.000000000000E+000   1.032000000000E+003   8.950000000000E-004  'Object0'  # Data Set 6: Layer Row Column Bhead Cond IFACE Salinity Temperature Density Viscosity boundname
    95     1   200  1.000000000000E+003   2.000000000000E+001      0  3.500000000000E+001   5.000000000000E+000   1.032000000000E+003   8.950000000000E-004  'Object0'  # Data Set 6: Layer Row Column Bhead Cond IFACE Salinity Temperature Density Viscosity boundname
    96     1   200  1.000000000000E+003   2.000000000000E+001      0  3.500000000000E+001   5.000000000000E+000   1.032000000000E+003   8.950000000000E-004  'Object0'  # Data Set 6: Layer Row Column Bhead Cond IFACE Salinity Temperature Density Viscosity boundname
    97     1   200  1.000000000000E+003   2.000000000000E+001      0  3.500000000000E+001   5.000000000000E+000   1.032000000000E+003   8.950000000000E-004  'Object0'  # Data Set 6: Layer Row Column Bhead Cond IFACE Salinity Temperature Density Viscosity boundname
    98     1   200  1.000000000000E+003   2.000000000000E+001      0  3.500000000000E+001   5.000000000000E+000   1.032000000000E+003   8.950000000000E-004  'Object0'  # Data Set 6: Layer Row Column Bhead Cond IFACE Salinity Temperature Density Viscosity boundname
    99     1   200  1.000000000000E+003   2.000000000000E+001      0  3.500000000000E+001   5.000000000000E+000   1.032000000000E+003   8.950000000000E-004  'Object0'  # Data Set 6: Layer Row Column Bhead Cond IFACE Salinity Temperature Density Viscosity boundname
   100     1   200  1.000000000000E+003   2.000000000000E+001      0  3.500000000000E+001   5.000000000000E+000   1.032000000000E+003   8.950000000000E-004  'Object0'  # Data Set 6: Layer Row Column Bhead Cond IFACE Salinity Temperature Density Viscosity boundname
END PERIOD 

