# Initial concentration file for Temperature file created on 6/24/2024 by ModelMuse version 5.2.0.18.
BEGIN GRIDDATA
  STRT LAYERED IPRN    12
    CONSTANT   0.000000000000E+000  # STRT 1

    CONSTANT   0.000000000000E+000  # STRT 2

    CONSTANT   0.000000000000E+000  # STRT 3

    CONSTANT   0.000000000000E+000  # STRT 4

    CONSTANT   0.000000000000E+000  # STRT 5

    CONSTANT   0.000000000000E+000  # STRT 6

    CONSTANT   0.000000000000E+000  # STRT 7

    CONSTANT   0.000000000000E+000  # STRT 8

    CONSTANT   0.000000000000E+000  # STRT 9

    CONSTANT   0.000000000000E+000  # STRT 10

    CONSTANT   0.000000000000E+000  # STRT 11

    CONSTANT   0.000000000000E+000  # STRT 12

    CONSTANT   0.000000000000E+000  # STRT 13

    CONSTANT   0.000000000000E+000  # STRT 14

    CONSTANT   0.000000000000E+000  # STRT 15

    CONSTANT   0.000000000000E+000  # STRT 16

    CONSTANT   0.000000000000E+000  # STRT 17

    CONSTANT   0.000000000000E+000  # STRT 18

    CONSTANT   0.000000000000E+000  # STRT 19

    CONSTANT   0.000000000000E+000  # STRT 20

    CONSTANT   0.000000000000E+000  # STRT 21

    CONSTANT   0.000000000000E+000  # STRT 22

    CONSTANT   0.000000000000E+000  # STRT 23

    CONSTANT   0.000000000000E+000  # STRT 24

    CONSTANT   0.000000000000E+000  # STRT 25

    CONSTANT   0.000000000000E+000  # STRT 26

    CONSTANT   0.000000000000E+000  # STRT 27

    CONSTANT   0.000000000000E+000  # STRT 28

    CONSTANT   0.000000000000E+000  # STRT 29

    CONSTANT   0.000000000000E+000  # STRT 30

    CONSTANT   0.000000000000E+000  # STRT 31

    CONSTANT   0.000000000000E+000  # STRT 32

    CONSTANT   0.000000000000E+000  # STRT 33

    CONSTANT   0.000000000000E+000  # STRT 34

    CONSTANT   0.000000000000E+000  # STRT 35

    CONSTANT   0.000000000000E+000  # STRT 36

    CONSTANT   0.000000000000E+000  # STRT 37

    CONSTANT   0.000000000000E+000  # STRT 38

    CONSTANT   0.000000000000E+000  # STRT 39

    CONSTANT   0.000000000000E+000  # STRT 40

    CONSTANT   0.000000000000E+000  # STRT 41

    CONSTANT   0.000000000000E+000  # STRT 42

    CONSTANT   0.000000000000E+000  # STRT 43

    CONSTANT   0.000000000000E+000  # STRT 44

    CONSTANT   0.000000000000E+000  # STRT 45

    CONSTANT   0.000000000000E+000  # STRT 46

    CONSTANT   0.000000000000E+000  # STRT 47

    CONSTANT   0.000000000000E+000  # STRT 48

    CONSTANT   0.000000000000E+000  # STRT 49

    CONSTANT   0.000000000000E+000  # STRT 50

    CONSTANT   0.000000000000E+000  # STRT 51

    CONSTANT   0.000000000000E+000  # STRT 52

    CONSTANT   0.000000000000E+000  # STRT 53

    CONSTANT   0.000000000000E+000  # STRT 54

    CONSTANT   0.000000000000E+000  # STRT 55

    CONSTANT   0.000000000000E+000  # STRT 56

    CONSTANT   0.000000000000E+000  # STRT 57

    CONSTANT   0.000000000000E+000  # STRT 58

    CONSTANT   0.000000000000E+000  # STRT 59

    CONSTANT   0.000000000000E+000  # STRT 60

    CONSTANT   0.000000000000E+000  # STRT 61

    CONSTANT   0.000000000000E+000  # STRT 62

    CONSTANT   0.000000000000E+000  # STRT 63

    CONSTANT   0.000000000000E+000  # STRT 64

    CONSTANT   0.000000000000E+000  # STRT 65

    CONSTANT   0.000000000000E+000  # STRT 66

    CONSTANT   0.000000000000E+000  # STRT 67

    CONSTANT   0.000000000000E+000  # STRT 68

    CONSTANT   0.000000000000E+000  # STRT 69

    CONSTANT   0.000000000000E+000  # STRT 70

    CONSTANT   0.000000000000E+000  # STRT 71

    CONSTANT   0.000000000000E+000  # STRT 72

    CONSTANT   0.000000000000E+000  # STRT 73

    CONSTANT   0.000000000000E+000  # STRT 74

    CONSTANT   0.000000000000E+000  # STRT 75

    CONSTANT   0.000000000000E+000  # STRT 76

    CONSTANT   0.000000000000E+000  # STRT 77

    CONSTANT   0.000000000000E+000  # STRT 78

    CONSTANT   0.000000000000E+000  # STRT 79

    CONSTANT   0.000000000000E+000  # STRT 80

    CONSTANT   0.000000000000E+000  # STRT 81

    CONSTANT   0.000000000000E+000  # STRT 82

    CONSTANT   0.000000000000E+000  # STRT 83

    CONSTANT   0.000000000000E+000  # STRT 84

    CONSTANT   0.000000000000E+000  # STRT 85

    CONSTANT   0.000000000000E+000  # STRT 86

    CONSTANT   0.000000000000E+000  # STRT 87

    CONSTANT   0.000000000000E+000  # STRT 88

    CONSTANT   0.000000000000E+000  # STRT 89

    CONSTANT   0.000000000000E+000  # STRT 90

    CONSTANT   0.000000000000E+000  # STRT 91

    CONSTANT   0.000000000000E+000  # STRT 92

    CONSTANT   0.000000000000E+000  # STRT 93

    CONSTANT   0.000000000000E+000  # STRT 94

    CONSTANT   0.000000000000E+000  # STRT 95

    CONSTANT   0.000000000000E+000  # STRT 96

    CONSTANT   0.000000000000E+000  # STRT 97

    CONSTANT   0.000000000000E+000  # STRT 98

    CONSTANT   0.000000000000E+000  # STRT 99

    CONSTANT   0.000000000000E+000  # STRT 100

END GRIDDATA

