# Name File for MODFLOW created on 7/28/2023 by ModelMuse Version 5.1.1.34
BEGIN OPTIONS
  LIST ..\..\output\output.BuoyancySFR\BuoyancySFR.lst
  PRINT_INPUT
  SAVE_FLOWS
END OPTIONS

BEGIN PACKAGES
  DIS6         ..\..\model\model.BuoyancySFR\BuoyancySFR.dis  DIS
  IC6          ..\..\model\model.BuoyancySFR\BuoyancySFR.ic  IC
  NPF6         ..\..\model\model.BuoyancySFR\BuoyancySFR.npf  NPF
  STO6         ..\..\model\model.BuoyancySFR\BuoyancySFR.sto  STO
  OC6          ..\..\model\model.BuoyancySFR\BuoyancySFR.oc  OC
  GHB6         ..\..\model\model.BuoyancySFR\BuoyancySFR.ghb  GHB-1
  WEL6         ..\..\model\model.BuoyancySFR\BuoyancySFR.wel  WEL-1
  SFR6         ..\..\model\model.BuoyancySFR\BuoyancySFR.sfr  SFR-1
  BUY6         ..\..\model\model.BuoyancySFR\BuoyancySFR.buy  BUY6
END PACKAGES
