# Name File for MODFLOW created on 7/28/2023 by ModelMuse Version 5.1.1.34
BEGIN OPTIONS
  LIST ..\..\output\output.BuoyancyMAW\BuoyancyMAW.lst
  PRINT_INPUT
  SAVE_FLOWS
END OPTIONS

BEGIN PACKAGES
  DIS6         ..\..\model\model.BuoyancyMAW\BuoyancyMAW.dis  DIS
  IC6          ..\..\model\model.BuoyancyMAW\BuoyancyMAW.ic  IC
  NPF6         ..\..\model\model.BuoyancyMAW\BuoyancyMAW.npf  NPF
  STO6         ..\..\model\model.BuoyancyMAW\BuoyancyMAW.sto  STO
  OC6          ..\..\model\model.BuoyancyMAW\BuoyancyMAW.oc  OC
  GHB6         ..\..\model\model.BuoyancyMAW\BuoyancyMAW.ghb  GHB-1
  WEL6         ..\..\model\model.BuoyancyMAW\BuoyancyMAW.wel  WEL-1
  MAW6         ..\..\model\model.BuoyancyMAW\BuoyancyMAW.maw6  MAW-1
  BUY6         ..\..\model\model.BuoyancyMAW\BuoyancyMAW.buy  BUY6
END PACKAGES
