# Output Control file created on 12/8/2023 by ModelMuse version 5.1.1.46.
BEGIN OPTIONS
  BUDGET FILEOUT 'BuoyancyLAK.cbc'
  HEAD PRINT_FORMAT  COLUMNS      9 WIDTH     13 DIGITS      6 GENERAL
  HEAD FILEOUT 'BuoyancyLAK.bhd'
END OPTIONS

BEGIN PERIOD      1
  PRINT HEAD ALL
  SAVE HEAD ALL
  PRINT BUDGET ALL
  SAVE BUDGET ALL
END PERIOD 

