# Name File for MODFLOW created on 2/15/2024 by ModelMuse Version 5.1.1.55
BEGIN OPTIONS
  LIST ..\..\output\output.BuoyancyLAK\BuoyancyLAK.lst
  PRINT_INPUT
  SAVE_FLOWS
END OPTIONS

BEGIN PACKAGES
  DIS6         ..\..\model\model.BuoyancyLAK\BuoyancyLAK.dis  DIS
  IC6          ..\..\model\model.BuoyancyLAK\BuoyancyLAK.ic  IC
  NPF6         ..\..\model\model.BuoyancyLAK\BuoyancyLAK.npf  NPF
  STO6         ..\..\model\model.BuoyancyLAK\BuoyancyLAK.sto  STO
  OC6          ..\..\model\model.BuoyancyLAK\BuoyancyLAK.oc  OC
  GHB6         ..\..\model\model.BuoyancyLAK\BuoyancyLAK.ghb  GHB-1
  WEL6         ..\..\model\model.BuoyancyLAK\BuoyancyLAK.wel  WEL-1
  BUY6         ..\..\model\model.BuoyancyLAK\BuoyancyLAK.buy  BUY6
  VSC6         ..\..\model\model.BuoyancyLAK\BuoyancyLAK.vsc  VSC6
  LAK6         ..\..\model\model.BuoyancyLAK\BuoyancyLAK.lak6  LAK-1
END PACKAGES
