# Output Control file created on 7/28/2023 by ModelMuse version 5.1.1.34.
BEGIN OPTIONS
  BUDGET FILEOUT 'BuoyancySFR.cbc'
  HEAD PRINT_FORMAT  COLUMNS      9 WIDTH     13 DIGITS      6
  HEAD FILEOUT 'BuoyancySFR.bhd'
END OPTIONS

BEGIN PERIOD      1
  PRINT HEAD ALL
  SAVE HEAD ALL
  PRINT BUDGET ALL
  SAVE BUDGET ALL
END PERIOD 

