# MAW: Multi-Aquifer Well package file created on 5/22/2024 by ModelMuse version 5.2.0.11.
BEGIN OPTIONS
  AUXILIARY Salinity Temperature Density Viscosity
    BOUNDNAMES
    PRINT_INPUT
  PRINT_HEAD
  HEAD FILEOUT BuoyancyMAW.maw_head
    SAVE_FLOWS
  BUDGET FILEOUT BuoyancyMAW.maw_bud
  BUDGETCSV FILEOUT BuoyancyMAW.maw_bud.csv
  SHUTDOWN_THETA  7.000000000000E-001 
  SHUTDOWN_KAPPA  1.000000000000E-004 
END OPTIONS

BEGIN DIMENSIONS
  NMAWWELLS     1
END DIMENSIONS

BEGIN PACKAGEDATA
# <wellno> <radius> <bottom> <strt> <condeqn> <ngwfnodes> [<aux(naux)>] [<boundname>]
     1  1.000000000000E-001  -5.000000000000E+002   1.000000000000E+003  THIEM    51  0.000000000000E+000   0.000000000000E+000   0.000000000000E+000   0.000000000000E+000  'Object2' 
END PACKAGEDATA

BEGIN CONNECTIONDATA
# <wellno> <icon> <cellid(ncelldim)> <scrn_top> <scrn_bot> <hk_skin> <radius_skin>
     1     1     1     1   100  1.000000000000E+000  -5.000000000000E+002   1.000000000000E+000   3.000000000000E-001 
     1     2     2     1   100  1.000000000000E+000  -5.000000000000E+002   1.000000000000E+000   3.000000000000E-001 
     1     3     3     1   100  1.000000000000E+000  -5.000000000000E+002   1.000000000000E+000   3.000000000000E-001 
     1     4     4     1   100  1.000000000000E+000  -5.000000000000E+002   1.000000000000E+000   3.000000000000E-001 
     1     5     5     1   100  1.000000000000E+000  -5.000000000000E+002   1.000000000000E+000   3.000000000000E-001 
     1     6     6     1   100  1.000000000000E+000  -5.000000000000E+002   1.000000000000E+000   3.000000000000E-001 
     1     7     7     1   100  1.000000000000E+000  -5.000000000000E+002   1.000000000000E+000   3.000000000000E-001 
     1     8     8     1   100  1.000000000000E+000  -5.000000000000E+002   1.000000000000E+000   3.000000000000E-001 
     1     9     9     1   100  1.000000000000E+000  -5.000000000000E+002   1.000000000000E+000   3.000000000000E-001 
     1    10    10     1   100  1.000000000000E+000  -5.000000000000E+002   1.000000000000E+000   3.000000000000E-001 
     1    11    11     1   100  1.000000000000E+000  -5.000000000000E+002   1.000000000000E+000   3.000000000000E-001 
     1    12    12     1   100  1.000000000000E+000  -5.000000000000E+002   1.000000000000E+000   3.000000000000E-001 
     1    13    13     1   100  1.000000000000E+000  -5.000000000000E+002   1.000000000000E+000   3.000000000000E-001 
     1    14    14     1   100  1.000000000000E+000  -5.000000000000E+002   1.000000000000E+000   3.000000000000E-001 
     1    15    15     1   100  1.000000000000E+000  -5.000000000000E+002   1.000000000000E+000   3.000000000000E-001 
     1    16    16     1   100  1.000000000000E+000  -5.000000000000E+002   1.000000000000E+000   3.000000000000E-001 
     1    17    17     1   100  1.000000000000E+000  -5.000000000000E+002   1.000000000000E+000   3.000000000000E-001 
     1    18    18     1   100  1.000000000000E+000  -5.000000000000E+002   1.000000000000E+000   3.000000000000E-001 
     1    19    19     1   100  1.000000000000E+000  -5.000000000000E+002   1.000000000000E+000   3.000000000000E-001 
     1    20    20     1   100  1.000000000000E+000  -5.000000000000E+002   1.000000000000E+000   3.000000000000E-001 
     1    21    21     1   100  1.000000000000E+000  -5.000000000000E+002   1.000000000000E+000   3.000000000000E-001 
     1    22    22     1   100  1.000000000000E+000  -5.000000000000E+002   1.000000000000E+000   3.000000000000E-001 
     1    23    23     1   100  1.000000000000E+000  -5.000000000000E+002   1.000000000000E+000   3.000000000000E-001 
     1    24    24     1   100  1.000000000000E+000  -5.000000000000E+002   1.000000000000E+000   3.000000000000E-001 
     1    25    25     1   100  1.000000000000E+000  -5.000000000000E+002   1.000000000000E+000   3.000000000000E-001 
     1    26    26     1   100  1.000000000000E+000  -5.000000000000E+002   1.000000000000E+000   3.000000000000E-001 
     1    27    27     1   100  1.000000000000E+000  -5.000000000000E+002   1.000000000000E+000   3.000000000000E-001 
     1    28    28     1   100  1.000000000000E+000  -5.000000000000E+002   1.000000000000E+000   3.000000000000E-001 
     1    29    29     1   100  1.000000000000E+000  -5.000000000000E+002   1.000000000000E+000   3.000000000000E-001 
     1    30    30     1   100  1.000000000000E+000  -5.000000000000E+002   1.000000000000E+000   3.000000000000E-001 
     1    31    31     1   100  1.000000000000E+000  -5.000000000000E+002   1.000000000000E+000   3.000000000000E-001 
     1    32    32     1   100  1.000000000000E+000  -5.000000000000E+002   1.000000000000E+000   3.000000000000E-001 
     1    33    33     1   100  1.000000000000E+000  -5.000000000000E+002   1.000000000000E+000   3.000000000000E-001 
     1    34    34     1   100  1.000000000000E+000  -5.000000000000E+002   1.000000000000E+000   3.000000000000E-001 
     1    35    35     1   100  1.000000000000E+000  -5.000000000000E+002   1.000000000000E+000   3.000000000000E-001 
     1    36    36     1   100  1.000000000000E+000  -5.000000000000E+002   1.000000000000E+000   3.000000000000E-001 
     1    37    37     1   100  1.000000000000E+000  -5.000000000000E+002   1.000000000000E+000   3.000000000000E-001 
     1    38    38     1   100  1.000000000000E+000  -5.000000000000E+002   1.000000000000E+000   3.000000000000E-001 
     1    39    39     1   100  1.000000000000E+000  -5.000000000000E+002   1.000000000000E+000   3.000000000000E-001 
     1    40    40     1   100  1.000000000000E+000  -5.000000000000E+002   1.000000000000E+000   3.000000000000E-001 
     1    41    41     1   100  1.000000000000E+000  -5.000000000000E+002   1.000000000000E+000   3.000000000000E-001 
     1    42    42     1   100  1.000000000000E+000  -5.000000000000E+002   1.000000000000E+000   3.000000000000E-001 
     1    43    43     1   100  1.000000000000E+000  -5.000000000000E+002   1.000000000000E+000   3.000000000000E-001 
     1    44    44     1   100  1.000000000000E+000  -5.000000000000E+002   1.000000000000E+000   3.000000000000E-001 
     1    45    45     1   100  1.000000000000E+000  -5.000000000000E+002   1.000000000000E+000   3.000000000000E-001 
     1    46    46     1   100  1.000000000000E+000  -5.000000000000E+002   1.000000000000E+000   3.000000000000E-001 
     1    47    47     1   100  1.000000000000E+000  -5.000000000000E+002   1.000000000000E+000   3.000000000000E-001 
     1    48    48     1   100  1.000000000000E+000  -5.000000000000E+002   1.000000000000E+000   3.000000000000E-001 
     1    49    49     1   100  1.000000000000E+000  -5.000000000000E+002   1.000000000000E+000   3.000000000000E-001 
     1    50    50     1   100  1.000000000000E+000  -5.000000000000E+002   1.000000000000E+000   3.000000000000E-001 
     1    51    51     1   100  1.000000000000E+000  -5.000000000000E+002   1.000000000000E+000   3.000000000000E-001 
END CONNECTIONDATA

BEGIN PERIOD      1
# <wellno> <mawsetting>
     1 STATUS ACTIVE
     1 RATE  2.000000000000E+001 
       1  AUXILIARY  Salinity  0.000000000000E+000 
       1  AUXILIARY  Temperature  0.000000000000E+000 
       1  AUXILIARY  Density  1.035000000000E+003 
       1  AUXILIARY  Viscosity  8.904000000000E-004 
END PERIOD 

