# Transport name file for Temperature file created on 7/28/2023 by ModelMuse version 5.1.1.34.
BEGIN OPTIONS
  LIST BuoyancyLAK.Temperature.lst
    PRINT_INPUT
    SAVE_FLOWS
END OPTIONS

BEGIN PACKAGES
  DIS6 BuoyancyLAK.Temperature.dis
  OC6 BuoyancyLAK.Temperature.oc
  LKT6 BuoyancyLAK.Temperature.lkt
  ADV6 BuoyancyLAK.Temperature.adv
  DSP6 BuoyancyLAK.Temperature.dsp
  SSM6 BuoyancyLAK.Temperature.ssm
  IC6 BuoyancyLAK.Temperature.ic
  MST6 BuoyancyLAK.Temperature.mst
  CNC6 BuoyancyLAK.Temperature.cnc
END PACKAGES
