BEGIN DIMENSIONS
  NROW     2
  NCOL     4
END DIMENSIONS

BEGIN TABLE
  1.000000000000E+000   5.000000000000E+000   5.000000000000E+000   5.000000000000E+000 
  2.000000000000E+000   1.000000000000E+001   5.000000000000E+000   5.000000000000E+000 
END TABLE

