# Output Control file created on 2/15/2024 by ModelMuse version 5.1.1.55.
BEGIN OPTIONS
  BUDGET FILEOUT 'BuoyancyLAK.Viscosity.cbc'
  CONCENTRATION FILEOUT 'BuoyancyLAK.Viscosity.conc'
END OPTIONS

BEGIN PERIOD      1
  PRINT CONCENTRATION ALL
  SAVE CONCENTRATION ALL
  PRINT BUDGET ALL
  SAVE BUDGET ALL
END PERIOD 

