# Output Control file created on 7/28/2023 by ModelMuse version 5.1.1.34.
BEGIN OPTIONS
  BUDGET FILEOUT 'BuoyancySFR.Salinity.cbc'
  CONCENTRATION FILEOUT 'BuoyancySFR.Salinity.conc'
END OPTIONS

BEGIN PERIOD      1
  PRINT CONCENTRATION ALL
  SAVE CONCENTRATION ALL
  PRINT BUDGET ALL
  SAVE BUDGET ALL
END PERIOD 

