# Name File for MODFLOW created on 2/15/2024 by ModelMuse Version 5.1.1.55
BEGIN OPTIONS
  LIST BuoyancyMAW.lst
  PRINT_INPUT
  SAVE_FLOWS
END OPTIONS

BEGIN PACKAGES
  DIS6         BuoyancyMAW.dis  DIS
  IC6          BuoyancyMAW.ic  IC
  NPF6         BuoyancyMAW.npf  NPF
  STO6         BuoyancyMAW.sto  STO
  OC6          BuoyancyMAW.oc  OC
  GHB6         BuoyancyMAW.ghb  GHB-1
  WEL6         BuoyancyMAW.wel  WEL-1
  MAW6         BuoyancyMAW.maw6  MAW-1
  BUY6         BuoyancyMAW.buy  BUY6
  VSC6         BuoyancyMAW.vsc  VSC6
END PACKAGES
