# MST: Mobile Storage and Transfer Package file created on 7/28/2023 by ModelMuse version 5.1.1.34.
BEGIN OPTIONS
    SAVE_FLOWS
END OPTIONS

BEGIN GRIDDATA
  POROSITY LAYERED IPRN    12
    CONSTANT   3.500000000000E-001  # POROSITY 1

    CONSTANT   3.500000000000E-001  # POROSITY 2

    CONSTANT   3.500000000000E-001  # POROSITY 3

    CONSTANT   3.500000000000E-001  # POROSITY 4

    CONSTANT   3.500000000000E-001  # POROSITY 5

    CONSTANT   3.500000000000E-001  # POROSITY 6

    CONSTANT   3.500000000000E-001  # POROSITY 7

    CONSTANT   3.500000000000E-001  # POROSITY 8

    CONSTANT   3.500000000000E-001  # POROSITY 9

    CONSTANT   3.500000000000E-001  # POROSITY 10

    CONSTANT   3.500000000000E-001  # POROSITY 11

    CONSTANT   3.500000000000E-001  # POROSITY 12

    CONSTANT   3.500000000000E-001  # POROSITY 13

    CONSTANT   3.500000000000E-001  # POROSITY 14

    CONSTANT   3.500000000000E-001  # POROSITY 15

    CONSTANT   3.500000000000E-001  # POROSITY 16

    CONSTANT   3.500000000000E-001  # POROSITY 17

    CONSTANT   3.500000000000E-001  # POROSITY 18

    CONSTANT   3.500000000000E-001  # POROSITY 19

    CONSTANT   3.500000000000E-001  # POROSITY 20

    CONSTANT   3.500000000000E-001  # POROSITY 21

    CONSTANT   3.500000000000E-001  # POROSITY 22

    CONSTANT   3.500000000000E-001  # POROSITY 23

    CONSTANT   3.500000000000E-001  # POROSITY 24

    CONSTANT   3.500000000000E-001  # POROSITY 25

    CONSTANT   3.500000000000E-001  # POROSITY 26

    CONSTANT   3.500000000000E-001  # POROSITY 27

    CONSTANT   3.500000000000E-001  # POROSITY 28

    CONSTANT   3.500000000000E-001  # POROSITY 29

    CONSTANT   3.500000000000E-001  # POROSITY 30

    CONSTANT   3.500000000000E-001  # POROSITY 31

    CONSTANT   3.500000000000E-001  # POROSITY 32

    CONSTANT   3.500000000000E-001  # POROSITY 33

    CONSTANT   3.500000000000E-001  # POROSITY 34

    CONSTANT   3.500000000000E-001  # POROSITY 35

    CONSTANT   3.500000000000E-001  # POROSITY 36

    CONSTANT   3.500000000000E-001  # POROSITY 37

    CONSTANT   3.500000000000E-001  # POROSITY 38

    CONSTANT   3.500000000000E-001  # POROSITY 39

    CONSTANT   3.500000000000E-001  # POROSITY 40

    CONSTANT   3.500000000000E-001  # POROSITY 41

    CONSTANT   3.500000000000E-001  # POROSITY 42

    CONSTANT   3.500000000000E-001  # POROSITY 43

    CONSTANT   3.500000000000E-001  # POROSITY 44

    CONSTANT   3.500000000000E-001  # POROSITY 45

    CONSTANT   3.500000000000E-001  # POROSITY 46

    CONSTANT   3.500000000000E-001  # POROSITY 47

    CONSTANT   3.500000000000E-001  # POROSITY 48

    CONSTANT   3.500000000000E-001  # POROSITY 49

    CONSTANT   3.500000000000E-001  # POROSITY 50

    CONSTANT   3.500000000000E-001  # POROSITY 51

    CONSTANT   3.500000000000E-001  # POROSITY 52

    CONSTANT   3.500000000000E-001  # POROSITY 53

    CONSTANT   3.500000000000E-001  # POROSITY 54

    CONSTANT   3.500000000000E-001  # POROSITY 55

    CONSTANT   3.500000000000E-001  # POROSITY 56

    CONSTANT   3.500000000000E-001  # POROSITY 57

    CONSTANT   3.500000000000E-001  # POROSITY 58

    CONSTANT   3.500000000000E-001  # POROSITY 59

    CONSTANT   3.500000000000E-001  # POROSITY 60

    CONSTANT   3.500000000000E-001  # POROSITY 61

    CONSTANT   3.500000000000E-001  # POROSITY 62

    CONSTANT   3.500000000000E-001  # POROSITY 63

    CONSTANT   3.500000000000E-001  # POROSITY 64

    CONSTANT   3.500000000000E-001  # POROSITY 65

    CONSTANT   3.500000000000E-001  # POROSITY 66

    CONSTANT   3.500000000000E-001  # POROSITY 67

    CONSTANT   3.500000000000E-001  # POROSITY 68

    CONSTANT   3.500000000000E-001  # POROSITY 69

    CONSTANT   3.500000000000E-001  # POROSITY 70

    CONSTANT   3.500000000000E-001  # POROSITY 71

    CONSTANT   3.500000000000E-001  # POROSITY 72

    CONSTANT   3.500000000000E-001  # POROSITY 73

    CONSTANT   3.500000000000E-001  # POROSITY 74

    CONSTANT   3.500000000000E-001  # POROSITY 75

    CONSTANT   3.500000000000E-001  # POROSITY 76

    CONSTANT   3.500000000000E-001  # POROSITY 77

    CONSTANT   3.500000000000E-001  # POROSITY 78

    CONSTANT   3.500000000000E-001  # POROSITY 79

    CONSTANT   3.500000000000E-001  # POROSITY 80

    CONSTANT   3.500000000000E-001  # POROSITY 81

    CONSTANT   3.500000000000E-001  # POROSITY 82

    CONSTANT   3.500000000000E-001  # POROSITY 83

    CONSTANT   3.500000000000E-001  # POROSITY 84

    CONSTANT   3.500000000000E-001  # POROSITY 85

    CONSTANT   3.500000000000E-001  # POROSITY 86

    CONSTANT   3.500000000000E-001  # POROSITY 87

    CONSTANT   3.500000000000E-001  # POROSITY 88

    CONSTANT   3.500000000000E-001  # POROSITY 89

    CONSTANT   3.500000000000E-001  # POROSITY 90

    CONSTANT   3.500000000000E-001  # POROSITY 91

    CONSTANT   3.500000000000E-001  # POROSITY 92

    CONSTANT   3.500000000000E-001  # POROSITY 93

    CONSTANT   3.500000000000E-001  # POROSITY 94

    CONSTANT   3.500000000000E-001  # POROSITY 95

    CONSTANT   3.500000000000E-001  # POROSITY 96

    CONSTANT   3.500000000000E-001  # POROSITY 97

    CONSTANT   3.500000000000E-001  # POROSITY 98

    CONSTANT   3.500000000000E-001  # POROSITY 99

    CONSTANT   3.500000000000E-001  # POROSITY 100

END GRIDDATA

