# Transport name file for Temperature file created on 7/28/2023 by ModelMuse version 5.1.1.34.
BEGIN OPTIONS
  LIST Buoyancy.Temperature.lst
    PRINT_INPUT
    SAVE_FLOWS
END OPTIONS

BEGIN PACKAGES
  DIS6 Buoyancy.Temperature.dis
  OC6 Buoyancy.Temperature.oc
  ADV6 Buoyancy.Temperature.adv
  DSP6 Buoyancy.Temperature.dsp
  SSM6 Buoyancy.Temperature.ssm
  IC6 Buoyancy.Temperature.ic
  MST6 Buoyancy.Temperature.mst
  CNC6 Buoyancy.Temperature.cnc
END PACKAGES
