# Name File for MODFLOW created on 7/28/2023 by ModelMuse Version 5.1.1.34
BEGIN OPTIONS
  LIST Buoyancy.lst
  PRINT_INPUT
  SAVE_FLOWS
END OPTIONS

BEGIN PACKAGES
  DIS6         Buoyancy.dis  DIS
  IC6          Buoyancy.ic  IC
  NPF6         Buoyancy.npf  NPF
  STO6         Buoyancy.sto  STO
  OC6          Buoyancy.oc  OC
  GHB6         Buoyancy.ghb  GHB-1
  WEL6         Buoyancy.wel  WEL-1
  BUY6         Buoyancy.buy  BUY6
END PACKAGES
