# Output Control file created on 7/28/2023 by ModelMuse version 5.1.1.34.
BEGIN OPTIONS
  BUDGET FILEOUT 'BuoyancyLAK.Temperature.cbc'
  CONCENTRATION FILEOUT 'BuoyancyLAK.Temperature.conc'
END OPTIONS

BEGIN PERIOD      1
  PRINT CONCENTRATION ALL
  SAVE CONCENTRATION ALL
  PRINT BUDGET ALL
  SAVE BUDGET ALL
END PERIOD 

