# Discretization File created on 7/28/2023 by ModelMuse version 5.1.1.34.
# Upper left corner: (0, 0)
# Lower left corner: (0, -1)
# Upper right corner: (2000, 0)
# Lower right corner: (2000, -1)
# Grid angle (in degrees counterclockwise): 0
# Number of active cells = 20000.
BEGIN OPTIONS
  LENGTH_UNITS METERS
  XORIGIN  0.000000000000E+000 
  YORIGIN -1.000000000000E+000 
  ANGROT  0.000000000000E+000 
END OPTIONS

BEGIN DIMENSIONS
  NLAY    100
  NROW      1
  NCOL    200
END DIMENSIONS


BEGIN GRIDDATA
  DELR IPRN    12
    CONSTANT   1.000000000000E+001  # DELR

  DELC IPRN    12
    CONSTANT   1.000000000000E+000  # DELC

  TOP LAYERED IPRN    12
    CONSTANT   1.000000000000E+000  # TOP

  BOTM LAYERED IPRN    12
    CONSTANT  -9.000000000000E+000  # BOTM, Aquifer Layer 1

    CONSTANT  -1.900000000000E+001  # BOTM, Aquifer Layer 2

    CONSTANT  -2.900000000000E+001  # BOTM, Aquifer Layer 3

    CONSTANT  -3.900000000000E+001  # BOTM, Aquifer Layer 4

    CONSTANT  -4.900000000000E+001  # BOTM, Aquifer Layer 5

    CONSTANT  -5.900000000000E+001  # BOTM, Aquifer Layer 6

    CONSTANT  -6.900000000000E+001  # BOTM, Aquifer Layer 7

    CONSTANT  -7.900000000000E+001  # BOTM, Aquifer Layer 8

    CONSTANT  -8.900000000000E+001  # BOTM, Aquifer Layer 9

    CONSTANT  -9.900000000000E+001  # BOTM, Aquifer Layer 10

    CONSTANT  -1.090000000000E+002  # BOTM, Aquifer Layer 11

    CONSTANT  -1.190000000000E+002  # BOTM, Aquifer Layer 12

    CONSTANT  -1.290000000000E+002  # BOTM, Aquifer Layer 13

    CONSTANT  -1.390000000000E+002  # BOTM, Aquifer Layer 14

    CONSTANT  -1.490000000000E+002  # BOTM, Aquifer Layer 15

    CONSTANT  -1.590000000000E+002  # BOTM, Aquifer Layer 16

    CONSTANT  -1.690000000000E+002  # BOTM, Aquifer Layer 17

    CONSTANT  -1.790000000000E+002  # BOTM, Aquifer Layer 18

    CONSTANT  -1.890000000000E+002  # BOTM, Aquifer Layer 19

    CONSTANT  -1.990000000000E+002  # BOTM, Aquifer Layer 20

    CONSTANT  -2.090000000000E+002  # BOTM, Aquifer Layer 21

    CONSTANT  -2.190000000000E+002  # BOTM, Aquifer Layer 22

    CONSTANT  -2.290000000000E+002  # BOTM, Aquifer Layer 23

    CONSTANT  -2.390000000000E+002  # BOTM, Aquifer Layer 24

    CONSTANT  -2.490000000000E+002  # BOTM, Aquifer Layer 25

    CONSTANT  -2.590000000000E+002  # BOTM, Aquifer Layer 26

    CONSTANT  -2.690000000000E+002  # BOTM, Aquifer Layer 27

    CONSTANT  -2.790000000000E+002  # BOTM, Aquifer Layer 28

    CONSTANT  -2.890000000000E+002  # BOTM, Aquifer Layer 29

    CONSTANT  -2.990000000000E+002  # BOTM, Aquifer Layer 30

    CONSTANT  -3.090000000000E+002  # BOTM, Aquifer Layer 31

    CONSTANT  -3.190000000000E+002  # BOTM, Aquifer Layer 32

    CONSTANT  -3.290000000000E+002  # BOTM, Aquifer Layer 33

    CONSTANT  -3.390000000000E+002  # BOTM, Aquifer Layer 34

    CONSTANT  -3.490000000000E+002  # BOTM, Aquifer Layer 35

    CONSTANT  -3.590000000000E+002  # BOTM, Aquifer Layer 36

    CONSTANT  -3.690000000000E+002  # BOTM, Aquifer Layer 37

    CONSTANT  -3.790000000000E+002  # BOTM, Aquifer Layer 38

    CONSTANT  -3.890000000000E+002  # BOTM, Aquifer Layer 39

    CONSTANT  -3.990000000000E+002  # BOTM, Aquifer Layer 40

    CONSTANT  -4.090000000000E+002  # BOTM, Aquifer Layer 41

    CONSTANT  -4.190000000000E+002  # BOTM, Aquifer Layer 42

    CONSTANT  -4.290000000000E+002  # BOTM, Aquifer Layer 43

    CONSTANT  -4.390000000000E+002  # BOTM, Aquifer Layer 44

    CONSTANT  -4.490000000000E+002  # BOTM, Aquifer Layer 45

    CONSTANT  -4.590000000000E+002  # BOTM, Aquifer Layer 46

    CONSTANT  -4.690000000000E+002  # BOTM, Aquifer Layer 47

    CONSTANT  -4.790000000000E+002  # BOTM, Aquifer Layer 48

    CONSTANT  -4.890000000000E+002  # BOTM, Aquifer Layer 49

    CONSTANT  -4.990000000000E+002  # BOTM, Aquifer Layer 50

    CONSTANT  -5.090000000000E+002  # BOTM, Aquifer Layer 51

    CONSTANT  -5.190000000000E+002  # BOTM, Aquifer Layer 52

    CONSTANT  -5.290000000000E+002  # BOTM, Aquifer Layer 53

    CONSTANT  -5.390000000000E+002  # BOTM, Aquifer Layer 54

    CONSTANT  -5.490000000000E+002  # BOTM, Aquifer Layer 55

    CONSTANT  -5.590000000000E+002  # BOTM, Aquifer Layer 56

    CONSTANT  -5.690000000000E+002  # BOTM, Aquifer Layer 57

    CONSTANT  -5.790000000000E+002  # BOTM, Aquifer Layer 58

    CONSTANT  -5.890000000000E+002  # BOTM, Aquifer Layer 59

    CONSTANT  -5.990000000000E+002  # BOTM, Aquifer Layer 60

    CONSTANT  -6.090000000000E+002  # BOTM, Aquifer Layer 61

    CONSTANT  -6.190000000000E+002  # BOTM, Aquifer Layer 62

    CONSTANT  -6.290000000000E+002  # BOTM, Aquifer Layer 63

    CONSTANT  -6.390000000000E+002  # BOTM, Aquifer Layer 64

    CONSTANT  -6.490000000000E+002  # BOTM, Aquifer Layer 65

    CONSTANT  -6.590000000000E+002  # BOTM, Aquifer Layer 66

    CONSTANT  -6.690000000000E+002  # BOTM, Aquifer Layer 67

    CONSTANT  -6.790000000000E+002  # BOTM, Aquifer Layer 68

    CONSTANT  -6.890000000000E+002  # BOTM, Aquifer Layer 69

    CONSTANT  -6.990000000000E+002  # BOTM, Aquifer Layer 70

    CONSTANT  -7.090000000000E+002  # BOTM, Aquifer Layer 71

    CONSTANT  -7.190000000000E+002  # BOTM, Aquifer Layer 72

    CONSTANT  -7.290000000000E+002  # BOTM, Aquifer Layer 73

    CONSTANT  -7.390000000000E+002  # BOTM, Aquifer Layer 74

    CONSTANT  -7.490000000000E+002  # BOTM, Aquifer Layer 75

    CONSTANT  -7.590000000000E+002  # BOTM, Aquifer Layer 76

    CONSTANT  -7.690000000000E+002  # BOTM, Aquifer Layer 77

    CONSTANT  -7.790000000000E+002  # BOTM, Aquifer Layer 78

    CONSTANT  -7.890000000000E+002  # BOTM, Aquifer Layer 79

    CONSTANT  -7.990000000000E+002  # BOTM, Aquifer Layer 80

    CONSTANT  -8.090000000000E+002  # BOTM, Aquifer Layer 81

    CONSTANT  -8.190000000000E+002  # BOTM, Aquifer Layer 82

    CONSTANT  -8.290000000000E+002  # BOTM, Aquifer Layer 83

    CONSTANT  -8.390000000000E+002  # BOTM, Aquifer Layer 84

    CONSTANT  -8.490000000000E+002  # BOTM, Aquifer Layer 85

    CONSTANT  -8.590000000000E+002  # BOTM, Aquifer Layer 86

    CONSTANT  -8.690000000000E+002  # BOTM, Aquifer Layer 87

    CONSTANT  -8.790000000000E+002  # BOTM, Aquifer Layer 88

    CONSTANT  -8.890000000000E+002  # BOTM, Aquifer Layer 89

    CONSTANT  -8.990000000000E+002  # BOTM, Aquifer Layer 90

    CONSTANT  -9.090000000000E+002  # BOTM, Aquifer Layer 91

    CONSTANT  -9.190000000000E+002  # BOTM, Aquifer Layer 92

    CONSTANT  -9.290000000000E+002  # BOTM, Aquifer Layer 93

    CONSTANT  -9.390000000000E+002  # BOTM, Aquifer Layer 94

    CONSTANT  -9.490000000000E+002  # BOTM, Aquifer Layer 95

    CONSTANT  -9.590000000000E+002  # BOTM, Aquifer Layer 96

    CONSTANT  -9.690000000000E+002  # BOTM, Aquifer Layer 97

    CONSTANT  -9.790000000000E+002  # BOTM, Aquifer Layer 98

    CONSTANT  -9.890000000000E+002  # BOTM, Aquifer Layer 99

    CONSTANT  -9.990000000000E+002  # BOTM, Aquifer Layer 100

  IDOMAIN LAYERED IPRN     5
    CONSTANT      1 # IDOMAIN 1
    CONSTANT      1 # IDOMAIN 2
    CONSTANT      1 # IDOMAIN 3
    CONSTANT      1 # IDOMAIN 4
    CONSTANT      1 # IDOMAIN 5
    CONSTANT      1 # IDOMAIN 6
    CONSTANT      1 # IDOMAIN 7
    CONSTANT      1 # IDOMAIN 8
    CONSTANT      1 # IDOMAIN 9
    CONSTANT      1 # IDOMAIN 10
    CONSTANT      1 # IDOMAIN 11
    CONSTANT      1 # IDOMAIN 12
    CONSTANT      1 # IDOMAIN 13
    CONSTANT      1 # IDOMAIN 14
    CONSTANT      1 # IDOMAIN 15
    CONSTANT      1 # IDOMAIN 16
    CONSTANT      1 # IDOMAIN 17
    CONSTANT      1 # IDOMAIN 18
    CONSTANT      1 # IDOMAIN 19
    CONSTANT      1 # IDOMAIN 20
    CONSTANT      1 # IDOMAIN 21
    CONSTANT      1 # IDOMAIN 22
    CONSTANT      1 # IDOMAIN 23
    CONSTANT      1 # IDOMAIN 24
    CONSTANT      1 # IDOMAIN 25
    CONSTANT      1 # IDOMAIN 26
    CONSTANT      1 # IDOMAIN 27
    CONSTANT      1 # IDOMAIN 28
    CONSTANT      1 # IDOMAIN 29
    CONSTANT      1 # IDOMAIN 30
    CONSTANT      1 # IDOMAIN 31
    CONSTANT      1 # IDOMAIN 32
    CONSTANT      1 # IDOMAIN 33
    CONSTANT      1 # IDOMAIN 34
    CONSTANT      1 # IDOMAIN 35
    CONSTANT      1 # IDOMAIN 36
    CONSTANT      1 # IDOMAIN 37
    CONSTANT      1 # IDOMAIN 38
    CONSTANT      1 # IDOMAIN 39
    CONSTANT      1 # IDOMAIN 40
    CONSTANT      1 # IDOMAIN 41
    CONSTANT      1 # IDOMAIN 42
    CONSTANT      1 # IDOMAIN 43
    CONSTANT      1 # IDOMAIN 44
    CONSTANT      1 # IDOMAIN 45
    CONSTANT      1 # IDOMAIN 46
    CONSTANT      1 # IDOMAIN 47
    CONSTANT      1 # IDOMAIN 48
    CONSTANT      1 # IDOMAIN 49
    CONSTANT      1 # IDOMAIN 50
    CONSTANT      1 # IDOMAIN 51
    CONSTANT      1 # IDOMAIN 52
    CONSTANT      1 # IDOMAIN 53
    CONSTANT      1 # IDOMAIN 54
    CONSTANT      1 # IDOMAIN 55
    CONSTANT      1 # IDOMAIN 56
    CONSTANT      1 # IDOMAIN 57
    CONSTANT      1 # IDOMAIN 58
    CONSTANT      1 # IDOMAIN 59
    CONSTANT      1 # IDOMAIN 60
    CONSTANT      1 # IDOMAIN 61
    CONSTANT      1 # IDOMAIN 62
    CONSTANT      1 # IDOMAIN 63
    CONSTANT      1 # IDOMAIN 64
    CONSTANT      1 # IDOMAIN 65
    CONSTANT      1 # IDOMAIN 66
    CONSTANT      1 # IDOMAIN 67
    CONSTANT      1 # IDOMAIN 68
    CONSTANT      1 # IDOMAIN 69
    CONSTANT      1 # IDOMAIN 70
    CONSTANT      1 # IDOMAIN 71
    CONSTANT      1 # IDOMAIN 72
    CONSTANT      1 # IDOMAIN 73
    CONSTANT      1 # IDOMAIN 74
    CONSTANT      1 # IDOMAIN 75
    CONSTANT      1 # IDOMAIN 76
    CONSTANT      1 # IDOMAIN 77
    CONSTANT      1 # IDOMAIN 78
    CONSTANT      1 # IDOMAIN 79
    CONSTANT      1 # IDOMAIN 80
    CONSTANT      1 # IDOMAIN 81
    CONSTANT      1 # IDOMAIN 82
    CONSTANT      1 # IDOMAIN 83
    CONSTANT      1 # IDOMAIN 84
    CONSTANT      1 # IDOMAIN 85
    CONSTANT      1 # IDOMAIN 86
    CONSTANT      1 # IDOMAIN 87
    CONSTANT      1 # IDOMAIN 88
    CONSTANT      1 # IDOMAIN 89
    CONSTANT      1 # IDOMAIN 90
    CONSTANT      1 # IDOMAIN 91
    CONSTANT      1 # IDOMAIN 92
    CONSTANT      1 # IDOMAIN 93
    CONSTANT      1 # IDOMAIN 94
    CONSTANT      1 # IDOMAIN 95
    CONSTANT      1 # IDOMAIN 96
    CONSTANT      1 # IDOMAIN 97
    CONSTANT      1 # IDOMAIN 98
    CONSTANT      1 # IDOMAIN 99
    CONSTANT      1 # IDOMAIN 100
END GRIDDATA

