# Transport name file for Temperature file created on 7/28/2023 by ModelMuse version 5.1.1.34.
BEGIN OPTIONS
  LIST BuoyancySFR.Temperature.lst
    PRINT_INPUT
    SAVE_FLOWS
END OPTIONS

BEGIN PACKAGES
  DIS6 BuoyancySFR.Temperature.dis
  OC6 BuoyancySFR.Temperature.oc
  SFT6 BuoyancySFR.Temperature.sft
  ADV6 BuoyancySFR.Temperature.adv
  DSP6 BuoyancySFR.Temperature.dsp
  SSM6 BuoyancySFR.Temperature.ssm
  IC6 BuoyancySFR.Temperature.ic
  MST6 BuoyancySFR.Temperature.mst
  CNC6 BuoyancySFR.Temperature.cnc
END PACKAGES
