# GHB: General-Head Boundary package file created on 7/28/2023 by ModelMuse version 5.1.1.34.
BEGIN OPTIONS
    AUXILIARY IFACE Salinity Temperature Density
    BOUNDNAMES
    PRINT_INPUT
    SAVE_FLOWS
END OPTIONS

BEGIN DIMENSIONS
  MAXBOUND   100
END DIMENSIONS

BEGIN PERIOD      1
     1     1   200  1.000000000000E+003   2.000000000000E+001      0  3.500000000000E+001   5.000000000000E+000   1.032000000000E+003  'Object0'  # Data Set 6: Layer Row Column Bhead Cond IFACE Salinity Temperature Density boundname
     2     1   200  1.000000000000E+003   2.000000000000E+001      0  3.500000000000E+001   5.000000000000E+000   1.032000000000E+003  'Object0'  # Data Set 6: Layer Row Column Bhead Cond IFACE Salinity Temperature Density boundname
     3     1   200  1.000000000000E+003   2.000000000000E+001      0  3.500000000000E+001   5.000000000000E+000   1.032000000000E+003  'Object0'  # Data Set 6: Layer Row Column Bhead Cond IFACE Salinity Temperature Density boundname
     4     1   200  1.000000000000E+003   2.000000000000E+001      0  3.500000000000E+001   5.000000000000E+000   1.032000000000E+003  'Object0'  # Data Set 6: Layer Row Column Bhead Cond IFACE Salinity Temperature Density boundname
     5     1   200  1.000000000000E+003   2.000000000000E+001      0  3.500000000000E+001   5.000000000000E+000   1.032000000000E+003  'Object0'  # Data Set 6: Layer Row Column Bhead Cond IFACE Salinity Temperature Density boundname
     6     1   200  1.000000000000E+003   2.000000000000E+001      0  3.500000000000E+001   5.000000000000E+000   1.032000000000E+003  'Object0'  # Data Set 6: Layer Row Column Bhead Cond IFACE Salinity Temperature Density boundname
     7     1   200  1.000000000000E+003   2.000000000000E+001      0  3.500000000000E+001   5.000000000000E+000   1.032000000000E+003  'Object0'  # Data Set 6: Layer Row Column Bhead Cond IFACE Salinity Temperature Density boundname
     8     1   200  1.000000000000E+003   2.000000000000E+001      0  3.500000000000E+001   5.000000000000E+000   1.032000000000E+003  'Object0'  # Data Set 6: Layer Row Column Bhead Cond IFACE Salinity Temperature Density boundname
     9     1   200  1.000000000000E+003   2.000000000000E+001      0  3.500000000000E+001   5.000000000000E+000   1.032000000000E+003  'Object0'  # Data Set 6: Layer Row Column Bhead Cond IFACE Salinity Temperature Density boundname
    10     1   200  1.000000000000E+003   2.000000000000E+001      0  3.500000000000E+001   5.000000000000E+000   1.032000000000E+003  'Object0'  # Data Set 6: Layer Row Column Bhead Cond IFACE Salinity Temperature Density boundname
    11     1   200  1.000000000000E+003   2.000000000000E+001      0  3.500000000000E+001   5.000000000000E+000   1.032000000000E+003  'Object0'  # Data Set 6: Layer Row Column Bhead Cond IFACE Salinity Temperature Density boundname
    12     1   200  1.000000000000E+003   2.000000000000E+001      0  3.500000000000E+001   5.000000000000E+000   1.032000000000E+003  'Object0'  # Data Set 6: Layer Row Column Bhead Cond IFACE Salinity Temperature Density boundname
    13     1   200  1.000000000000E+003   2.000000000000E+001      0  3.500000000000E+001   5.000000000000E+000   1.032000000000E+003  'Object0'  # Data Set 6: Layer Row Column Bhead Cond IFACE Salinity Temperature Density boundname
    14     1   200  1.000000000000E+003   2.000000000000E+001      0  3.500000000000E+001   5.000000000000E+000   1.032000000000E+003  'Object0'  # Data Set 6: Layer Row Column Bhead Cond IFACE Salinity Temperature Density boundname
    15     1   200  1.000000000000E+003   2.000000000000E+001      0  3.500000000000E+001   5.000000000000E+000   1.032000000000E+003  'Object0'  # Data Set 6: Layer Row Column Bhead Cond IFACE Salinity Temperature Density boundname
    16     1   200  1.000000000000E+003   2.000000000000E+001      0  3.500000000000E+001   5.000000000000E+000   1.032000000000E+003  'Object0'  # Data Set 6: Layer Row Column Bhead Cond IFACE Salinity Temperature Density boundname
    17     1   200  1.000000000000E+003   2.000000000000E+001      0  3.500000000000E+001   5.000000000000E+000   1.032000000000E+003  'Object0'  # Data Set 6: Layer Row Column Bhead Cond IFACE Salinity Temperature Density boundname
    18     1   200  1.000000000000E+003   2.000000000000E+001      0  3.500000000000E+001   5.000000000000E+000   1.032000000000E+003  'Object0'  # Data Set 6: Layer Row Column Bhead Cond IFACE Salinity Temperature Density boundname
    19     1   200  1.000000000000E+003   2.000000000000E+001      0  3.500000000000E+001   5.000000000000E+000   1.032000000000E+003  'Object0'  # Data Set 6: Layer Row Column Bhead Cond IFACE Salinity Temperature Density boundname
    20     1   200  1.000000000000E+003   2.000000000000E+001      0  3.500000000000E+001   5.000000000000E+000   1.032000000000E+003  'Object0'  # Data Set 6: Layer Row Column Bhead Cond IFACE Salinity Temperature Density boundname
    21     1   200  1.000000000000E+003   2.000000000000E+001      0  3.500000000000E+001   5.000000000000E+000   1.032000000000E+003  'Object0'  # Data Set 6: Layer Row Column Bhead Cond IFACE Salinity Temperature Density boundname
    22     1   200  1.000000000000E+003   2.000000000000E+001      0  3.500000000000E+001   5.000000000000E+000   1.032000000000E+003  'Object0'  # Data Set 6: Layer Row Column Bhead Cond IFACE Salinity Temperature Density boundname
    23     1   200  1.000000000000E+003   2.000000000000E+001      0  3.500000000000E+001   5.000000000000E+000   1.032000000000E+003  'Object0'  # Data Set 6: Layer Row Column Bhead Cond IFACE Salinity Temperature Density boundname
    24     1   200  1.000000000000E+003   2.000000000000E+001      0  3.500000000000E+001   5.000000000000E+000   1.032000000000E+003  'Object0'  # Data Set 6: Layer Row Column Bhead Cond IFACE Salinity Temperature Density boundname
    25     1   200  1.000000000000E+003   2.000000000000E+001      0  3.500000000000E+001   5.000000000000E+000   1.032000000000E+003  'Object0'  # Data Set 6: Layer Row Column Bhead Cond IFACE Salinity Temperature Density boundname
    26     1   200  1.000000000000E+003   2.000000000000E+001      0  3.500000000000E+001   5.000000000000E+000   1.032000000000E+003  'Object0'  # Data Set 6: Layer Row Column Bhead Cond IFACE Salinity Temperature Density boundname
    27     1   200  1.000000000000E+003   2.000000000000E+001      0  3.500000000000E+001   5.000000000000E+000   1.032000000000E+003  'Object0'  # Data Set 6: Layer Row Column Bhead Cond IFACE Salinity Temperature Density boundname
    28     1   200  1.000000000000E+003   2.000000000000E+001      0  3.500000000000E+001   5.000000000000E+000   1.032000000000E+003  'Object0'  # Data Set 6: Layer Row Column Bhead Cond IFACE Salinity Temperature Density boundname
    29     1   200  1.000000000000E+003   2.000000000000E+001      0  3.500000000000E+001   5.000000000000E+000   1.032000000000E+003  'Object0'  # Data Set 6: Layer Row Column Bhead Cond IFACE Salinity Temperature Density boundname
    30     1   200  1.000000000000E+003   2.000000000000E+001      0  3.500000000000E+001   5.000000000000E+000   1.032000000000E+003  'Object0'  # Data Set 6: Layer Row Column Bhead Cond IFACE Salinity Temperature Density boundname
    31     1   200  1.000000000000E+003   2.000000000000E+001      0  3.500000000000E+001   5.000000000000E+000   1.032000000000E+003  'Object0'  # Data Set 6: Layer Row Column Bhead Cond IFACE Salinity Temperature Density boundname
    32     1   200  1.000000000000E+003   2.000000000000E+001      0  3.500000000000E+001   5.000000000000E+000   1.032000000000E+003  'Object0'  # Data Set 6: Layer Row Column Bhead Cond IFACE Salinity Temperature Density boundname
    33     1   200  1.000000000000E+003   2.000000000000E+001      0  3.500000000000E+001   5.000000000000E+000   1.032000000000E+003  'Object0'  # Data Set 6: Layer Row Column Bhead Cond IFACE Salinity Temperature Density boundname
    34     1   200  1.000000000000E+003   2.000000000000E+001      0  3.500000000000E+001   5.000000000000E+000   1.032000000000E+003  'Object0'  # Data Set 6: Layer Row Column Bhead Cond IFACE Salinity Temperature Density boundname
    35     1   200  1.000000000000E+003   2.000000000000E+001      0  3.500000000000E+001   5.000000000000E+000   1.032000000000E+003  'Object0'  # Data Set 6: Layer Row Column Bhead Cond IFACE Salinity Temperature Density boundname
    36     1   200  1.000000000000E+003   2.000000000000E+001      0  3.500000000000E+001   5.000000000000E+000   1.032000000000E+003  'Object0'  # Data Set 6: Layer Row Column Bhead Cond IFACE Salinity Temperature Density boundname
    37     1   200  1.000000000000E+003   2.000000000000E+001      0  3.500000000000E+001   5.000000000000E+000   1.032000000000E+003  'Object0'  # Data Set 6: Layer Row Column Bhead Cond IFACE Salinity Temperature Density boundname
    38     1   200  1.000000000000E+003   2.000000000000E+001      0  3.500000000000E+001   5.000000000000E+000   1.032000000000E+003  'Object0'  # Data Set 6: Layer Row Column Bhead Cond IFACE Salinity Temperature Density boundname
    39     1   200  1.000000000000E+003   2.000000000000E+001      0  3.500000000000E+001   5.000000000000E+000   1.032000000000E+003  'Object0'  # Data Set 6: Layer Row Column Bhead Cond IFACE Salinity Temperature Density boundname
    40     1   200  1.000000000000E+003   2.000000000000E+001      0  3.500000000000E+001   5.000000000000E+000   1.032000000000E+003  'Object0'  # Data Set 6: Layer Row Column Bhead Cond IFACE Salinity Temperature Density boundname
    41     1   200  1.000000000000E+003   2.000000000000E+001      0  3.500000000000E+001   5.000000000000E+000   1.032000000000E+003  'Object0'  # Data Set 6: Layer Row Column Bhead Cond IFACE Salinity Temperature Density boundname
    42     1   200  1.000000000000E+003   2.000000000000E+001      0  3.500000000000E+001   5.000000000000E+000   1.032000000000E+003  'Object0'  # Data Set 6: Layer Row Column Bhead Cond IFACE Salinity Temperature Density boundname
    43     1   200  1.000000000000E+003   2.000000000000E+001      0  3.500000000000E+001   5.000000000000E+000   1.032000000000E+003  'Object0'  # Data Set 6: Layer Row Column Bhead Cond IFACE Salinity Temperature Density boundname
    44     1   200  1.000000000000E+003   2.000000000000E+001      0  3.500000000000E+001   5.000000000000E+000   1.032000000000E+003  'Object0'  # Data Set 6: Layer Row Column Bhead Cond IFACE Salinity Temperature Density boundname
    45     1   200  1.000000000000E+003   2.000000000000E+001      0  3.500000000000E+001   5.000000000000E+000   1.032000000000E+003  'Object0'  # Data Set 6: Layer Row Column Bhead Cond IFACE Salinity Temperature Density boundname
    46     1   200  1.000000000000E+003   2.000000000000E+001      0  3.500000000000E+001   5.000000000000E+000   1.032000000000E+003  'Object0'  # Data Set 6: Layer Row Column Bhead Cond IFACE Salinity Temperature Density boundname
    47     1   200  1.000000000000E+003   2.000000000000E+001      0  3.500000000000E+001   5.000000000000E+000   1.032000000000E+003  'Object0'  # Data Set 6: Layer Row Column Bhead Cond IFACE Salinity Temperature Density boundname
    48     1   200  1.000000000000E+003   2.000000000000E+001      0  3.500000000000E+001   5.000000000000E+000   1.032000000000E+003  'Object0'  # Data Set 6: Layer Row Column Bhead Cond IFACE Salinity Temperature Density boundname
    49     1   200  1.000000000000E+003   2.000000000000E+001      0  3.500000000000E+001   5.000000000000E+000   1.032000000000E+003  'Object0'  # Data Set 6: Layer Row Column Bhead Cond IFACE Salinity Temperature Density boundname
    50     1   200  1.000000000000E+003   2.000000000000E+001      0  3.500000000000E+001   5.000000000000E+000   1.032000000000E+003  'Object0'  # Data Set 6: Layer Row Column Bhead Cond IFACE Salinity Temperature Density boundname
    51     1   200  1.000000000000E+003   2.000000000000E+001      0  3.500000000000E+001   5.000000000000E+000   1.032000000000E+003  'Object0'  # Data Set 6: Layer Row Column Bhead Cond IFACE Salinity Temperature Density boundname
    52     1   200  1.000000000000E+003   2.000000000000E+001      0  3.500000000000E+001   5.000000000000E+000   1.032000000000E+003  'Object0'  # Data Set 6: Layer Row Column Bhead Cond IFACE Salinity Temperature Density boundname
    53     1   200  1.000000000000E+003   2.000000000000E+001      0  3.500000000000E+001   5.000000000000E+000   1.032000000000E+003  'Object0'  # Data Set 6: Layer Row Column Bhead Cond IFACE Salinity Temperature Density boundname
    54     1   200  1.000000000000E+003   2.000000000000E+001      0  3.500000000000E+001   5.000000000000E+000   1.032000000000E+003  'Object0'  # Data Set 6: Layer Row Column Bhead Cond IFACE Salinity Temperature Density boundname
    55     1   200  1.000000000000E+003   2.000000000000E+001      0  3.500000000000E+001   5.000000000000E+000   1.032000000000E+003  'Object0'  # Data Set 6: Layer Row Column Bhead Cond IFACE Salinity Temperature Density boundname
    56     1   200  1.000000000000E+003   2.000000000000E+001      0  3.500000000000E+001   5.000000000000E+000   1.032000000000E+003  'Object0'  # Data Set 6: Layer Row Column Bhead Cond IFACE Salinity Temperature Density boundname
    57     1   200  1.000000000000E+003   2.000000000000E+001      0  3.500000000000E+001   5.000000000000E+000   1.032000000000E+003  'Object0'  # Data Set 6: Layer Row Column Bhead Cond IFACE Salinity Temperature Density boundname
    58     1   200  1.000000000000E+003   2.000000000000E+001      0  3.500000000000E+001   5.000000000000E+000   1.032000000000E+003  'Object0'  # Data Set 6: Layer Row Column Bhead Cond IFACE Salinity Temperature Density boundname
    59     1   200  1.000000000000E+003   2.000000000000E+001      0  3.500000000000E+001   5.000000000000E+000   1.032000000000E+003  'Object0'  # Data Set 6: Layer Row Column Bhead Cond IFACE Salinity Temperature Density boundname
    60     1   200  1.000000000000E+003   2.000000000000E+001      0  3.500000000000E+001   5.000000000000E+000   1.032000000000E+003  'Object0'  # Data Set 6: Layer Row Column Bhead Cond IFACE Salinity Temperature Density boundname
    61     1   200  1.000000000000E+003   2.000000000000E+001      0  3.500000000000E+001   5.000000000000E+000   1.032000000000E+003  'Object0'  # Data Set 6: Layer Row Column Bhead Cond IFACE Salinity Temperature Density boundname
    62     1   200  1.000000000000E+003   2.000000000000E+001      0  3.500000000000E+001   5.000000000000E+000   1.032000000000E+003  'Object0'  # Data Set 6: Layer Row Column Bhead Cond IFACE Salinity Temperature Density boundname
    63     1   200  1.000000000000E+003   2.000000000000E+001      0  3.500000000000E+001   5.000000000000E+000   1.032000000000E+003  'Object0'  # Data Set 6: Layer Row Column Bhead Cond IFACE Salinity Temperature Density boundname
    64     1   200  1.000000000000E+003   2.000000000000E+001      0  3.500000000000E+001   5.000000000000E+000   1.032000000000E+003  'Object0'  # Data Set 6: Layer Row Column Bhead Cond IFACE Salinity Temperature Density boundname
    65     1   200  1.000000000000E+003   2.000000000000E+001      0  3.500000000000E+001   5.000000000000E+000   1.032000000000E+003  'Object0'  # Data Set 6: Layer Row Column Bhead Cond IFACE Salinity Temperature Density boundname
    66     1   200  1.000000000000E+003   2.000000000000E+001      0  3.500000000000E+001   5.000000000000E+000   1.032000000000E+003  'Object0'  # Data Set 6: Layer Row Column Bhead Cond IFACE Salinity Temperature Density boundname
    67     1   200  1.000000000000E+003   2.000000000000E+001      0  3.500000000000E+001   5.000000000000E+000   1.032000000000E+003  'Object0'  # Data Set 6: Layer Row Column Bhead Cond IFACE Salinity Temperature Density boundname
    68     1   200  1.000000000000E+003   2.000000000000E+001      0  3.500000000000E+001   5.000000000000E+000   1.032000000000E+003  'Object0'  # Data Set 6: Layer Row Column Bhead Cond IFACE Salinity Temperature Density boundname
    69     1   200  1.000000000000E+003   2.000000000000E+001      0  3.500000000000E+001   5.000000000000E+000   1.032000000000E+003  'Object0'  # Data Set 6: Layer Row Column Bhead Cond IFACE Salinity Temperature Density boundname
    70     1   200  1.000000000000E+003   2.000000000000E+001      0  3.500000000000E+001   5.000000000000E+000   1.032000000000E+003  'Object0'  # Data Set 6: Layer Row Column Bhead Cond IFACE Salinity Temperature Density boundname
    71     1   200  1.000000000000E+003   2.000000000000E+001      0  3.500000000000E+001   5.000000000000E+000   1.032000000000E+003  'Object0'  # Data Set 6: Layer Row Column Bhead Cond IFACE Salinity Temperature Density boundname
    72     1   200  1.000000000000E+003   2.000000000000E+001      0  3.500000000000E+001   5.000000000000E+000   1.032000000000E+003  'Object0'  # Data Set 6: Layer Row Column Bhead Cond IFACE Salinity Temperature Density boundname
    73     1   200  1.000000000000E+003   2.000000000000E+001      0  3.500000000000E+001   5.000000000000E+000   1.032000000000E+003  'Object0'  # Data Set 6: Layer Row Column Bhead Cond IFACE Salinity Temperature Density boundname
    74     1   200  1.000000000000E+003   2.000000000000E+001      0  3.500000000000E+001   5.000000000000E+000   1.032000000000E+003  'Object0'  # Data Set 6: Layer Row Column Bhead Cond IFACE Salinity Temperature Density boundname
    75     1   200  1.000000000000E+003   2.000000000000E+001      0  3.500000000000E+001   5.000000000000E+000   1.032000000000E+003  'Object0'  # Data Set 6: Layer Row Column Bhead Cond IFACE Salinity Temperature Density boundname
    76     1   200  1.000000000000E+003   2.000000000000E+001      0  3.500000000000E+001   5.000000000000E+000   1.032000000000E+003  'Object0'  # Data Set 6: Layer Row Column Bhead Cond IFACE Salinity Temperature Density boundname
    77     1   200  1.000000000000E+003   2.000000000000E+001      0  3.500000000000E+001   5.000000000000E+000   1.032000000000E+003  'Object0'  # Data Set 6: Layer Row Column Bhead Cond IFACE Salinity Temperature Density boundname
    78     1   200  1.000000000000E+003   2.000000000000E+001      0  3.500000000000E+001   5.000000000000E+000   1.032000000000E+003  'Object0'  # Data Set 6: Layer Row Column Bhead Cond IFACE Salinity Temperature Density boundname
    79     1   200  1.000000000000E+003   2.000000000000E+001      0  3.500000000000E+001   5.000000000000E+000   1.032000000000E+003  'Object0'  # Data Set 6: Layer Row Column Bhead Cond IFACE Salinity Temperature Density boundname
    80     1   200  1.000000000000E+003   2.000000000000E+001      0  3.500000000000E+001   5.000000000000E+000   1.032000000000E+003  'Object0'  # Data Set 6: Layer Row Column Bhead Cond IFACE Salinity Temperature Density boundname
    81     1   200  1.000000000000E+003   2.000000000000E+001      0  3.500000000000E+001   5.000000000000E+000   1.032000000000E+003  'Object0'  # Data Set 6: Layer Row Column Bhead Cond IFACE Salinity Temperature Density boundname
    82     1   200  1.000000000000E+003   2.000000000000E+001      0  3.500000000000E+001   5.000000000000E+000   1.032000000000E+003  'Object0'  # Data Set 6: Layer Row Column Bhead Cond IFACE Salinity Temperature Density boundname
    83     1   200  1.000000000000E+003   2.000000000000E+001      0  3.500000000000E+001   5.000000000000E+000   1.032000000000E+003  'Object0'  # Data Set 6: Layer Row Column Bhead Cond IFACE Salinity Temperature Density boundname
    84     1   200  1.000000000000E+003   2.000000000000E+001      0  3.500000000000E+001   5.000000000000E+000   1.032000000000E+003  'Object0'  # Data Set 6: Layer Row Column Bhead Cond IFACE Salinity Temperature Density boundname
    85     1   200  1.000000000000E+003   2.000000000000E+001      0  3.500000000000E+001   5.000000000000E+000   1.032000000000E+003  'Object0'  # Data Set 6: Layer Row Column Bhead Cond IFACE Salinity Temperature Density boundname
    86     1   200  1.000000000000E+003   2.000000000000E+001      0  3.500000000000E+001   5.000000000000E+000   1.032000000000E+003  'Object0'  # Data Set 6: Layer Row Column Bhead Cond IFACE Salinity Temperature Density boundname
    87     1   200  1.000000000000E+003   2.000000000000E+001      0  3.500000000000E+001   5.000000000000E+000   1.032000000000E+003  'Object0'  # Data Set 6: Layer Row Column Bhead Cond IFACE Salinity Temperature Density boundname
    88     1   200  1.000000000000E+003   2.000000000000E+001      0  3.500000000000E+001   5.000000000000E+000   1.032000000000E+003  'Object0'  # Data Set 6: Layer Row Column Bhead Cond IFACE Salinity Temperature Density boundname
    89     1   200  1.000000000000E+003   2.000000000000E+001      0  3.500000000000E+001   5.000000000000E+000   1.032000000000E+003  'Object0'  # Data Set 6: Layer Row Column Bhead Cond IFACE Salinity Temperature Density boundname
    90     1   200  1.000000000000E+003   2.000000000000E+001      0  3.500000000000E+001   5.000000000000E+000   1.032000000000E+003  'Object0'  # Data Set 6: Layer Row Column Bhead Cond IFACE Salinity Temperature Density boundname
    91     1   200  1.000000000000E+003   2.000000000000E+001      0  3.500000000000E+001   5.000000000000E+000   1.032000000000E+003  'Object0'  # Data Set 6: Layer Row Column Bhead Cond IFACE Salinity Temperature Density boundname
    92     1   200  1.000000000000E+003   2.000000000000E+001      0  3.500000000000E+001   5.000000000000E+000   1.032000000000E+003  'Object0'  # Data Set 6: Layer Row Column Bhead Cond IFACE Salinity Temperature Density boundname
    93     1   200  1.000000000000E+003   2.000000000000E+001      0  3.500000000000E+001   5.000000000000E+000   1.032000000000E+003  'Object0'  # Data Set 6: Layer Row Column Bhead Cond IFACE Salinity Temperature Density boundname
    94     1   200  1.000000000000E+003   2.000000000000E+001      0  3.500000000000E+001   5.000000000000E+000   1.032000000000E+003  'Object0'  # Data Set 6: Layer Row Column Bhead Cond IFACE Salinity Temperature Density boundname
    95     1   200  1.000000000000E+003   2.000000000000E+001      0  3.500000000000E+001   5.000000000000E+000   1.032000000000E+003  'Object0'  # Data Set 6: Layer Row Column Bhead Cond IFACE Salinity Temperature Density boundname
    96     1   200  1.000000000000E+003   2.000000000000E+001      0  3.500000000000E+001   5.000000000000E+000   1.032000000000E+003  'Object0'  # Data Set 6: Layer Row Column Bhead Cond IFACE Salinity Temperature Density boundname
    97     1   200  1.000000000000E+003   2.000000000000E+001      0  3.500000000000E+001   5.000000000000E+000   1.032000000000E+003  'Object0'  # Data Set 6: Layer Row Column Bhead Cond IFACE Salinity Temperature Density boundname
    98     1   200  1.000000000000E+003   2.000000000000E+001      0  3.500000000000E+001   5.000000000000E+000   1.032000000000E+003  'Object0'  # Data Set 6: Layer Row Column Bhead Cond IFACE Salinity Temperature Density boundname
    99     1   200  1.000000000000E+003   2.000000000000E+001      0  3.500000000000E+001   5.000000000000E+000   1.032000000000E+003  'Object0'  # Data Set 6: Layer Row Column Bhead Cond IFACE Salinity Temperature Density boundname
   100     1   200  1.000000000000E+003   2.000000000000E+001      0  3.500000000000E+001   5.000000000000E+000   1.032000000000E+003  'Object0'  # Data Set 6: Layer Row Column Bhead Cond IFACE Salinity Temperature Density boundname
END PERIOD 

