# Transport name file for Temperature file created on 7/28/2023 by ModelMuse version 5.1.1.34.
BEGIN OPTIONS
  LIST BuoyancyMAW.Temperature.lst
    PRINT_INPUT
    SAVE_FLOWS
END OPTIONS

BEGIN PACKAGES
  DIS6 BuoyancyMAW.Temperature.dis
  OC6 BuoyancyMAW.Temperature.oc
  MWT6 BuoyancyMAW.Temperature.mwt
  ADV6 BuoyancyMAW.Temperature.adv
  DSP6 BuoyancyMAW.Temperature.dsp
  SSM6 BuoyancyMAW.Temperature.ssm
  IC6 BuoyancyMAW.Temperature.ic
  MST6 BuoyancyMAW.Temperature.mst
  CNC6 BuoyancyMAW.Temperature.cnc
END PACKAGES
