# VSC: Viscosity Package file created on 2/15/2024 by ModelMuse version 5.1.1.55.
BEGIN OPTIONS
  VISCREF  8.904000000000E-004 
  THERMAL_FORMULATION LINEAR
END OPTIONS

BEGIN DIMENSIONS
  NVISCSPECIES     2
END DIMENSIONS

BEGIN PACKAGEDATA
     1  1.000000000000E-004   0.000000000000E+000  Salinity Salinity
     2  1.000000000000E-004   2.500000000000E+001  Temperature Temperature
END PACKAGEDATA

