BEGIN TIMING
  TDIS6 'Buoyancy.tdis'
END TIMING

BEGIN MODELS
  GWF6 'Buoyancy.nam' 'MODFLOW'
  GWT6 'Buoyancy.Salinity.Gwt_nam' 'Salinity'
  GWT6 'Buoyancy.Temperature.Gwt_nam' 'Temperature'
END MODELS

BEGIN EXCHANGES
  GWF6-GWT6 Buoyancy.Salinity.gwfgwt MODFLOW Salinity
  GWF6-GWT6 Buoyancy.Temperature.gwfgwt MODFLOW Temperature
END EXCHANGES

BEGIN SOLUTIONGROUP     1
  MXITER     1
  IMS6 'Buoyancy.ims' 'MODFLOW' 
  IMS6 'Buoyancy.Salinity.ims' 'Salinity' 
  IMS6 'Buoyancy.Temperature.ims' 'Temperature' 
END SOLUTIONGROUP

