# ADV: GWT Advection Package file created on 7/28/2023 by ModelMuse version 5.1.1.34.
BEGIN OPTIONS
  SCHEME upstream
END OPTIONS

