# Name File for MODFLOW created on 7/28/2023 by ModelMuse Version 5.1.1.34
BEGIN OPTIONS
  LIST ..\..\output\output.Buoyancy\Buoyancy.lst
  PRINT_INPUT
  SAVE_FLOWS
END OPTIONS

BEGIN PACKAGES
  DIS6         ..\..\model\model.Buoyancy\Buoyancy.dis  DIS
  IC6          ..\..\model\model.Buoyancy\Buoyancy.ic  IC
  NPF6         ..\..\model\model.Buoyancy\Buoyancy.npf  NPF
  STO6         ..\..\model\model.Buoyancy\Buoyancy.sto  STO
  OC6          ..\..\model\model.Buoyancy\Buoyancy.oc  OC
  GHB6         ..\..\model\model.Buoyancy\Buoyancy.ghb  GHB-1
  WEL6         ..\..\model\model.Buoyancy\Buoyancy.wel  WEL-1
  BUY6         ..\..\model\model.Buoyancy\Buoyancy.buy  BUY6
END PACKAGES
