# STO: Storage package file created on 7/28/2023 by ModelMuse version 5.1.1.34.
BEGIN OPTIONS
    SAVE_FLOWS
END OPTIONS

BEGIN GRIDDATA
  ICONVERT LAYERED IPRN     5
    CONSTANT      0 # ICONVERT 1
    CONSTANT      0 # ICONVERT 2
    CONSTANT      0 # ICONVERT 3
    CONSTANT      0 # ICONVERT 4
    CONSTANT      0 # ICONVERT 5
    CONSTANT      0 # ICONVERT 6
    CONSTANT      0 # ICONVERT 7
    CONSTANT      0 # ICONVERT 8
    CONSTANT      0 # ICONVERT 9
    CONSTANT      0 # ICONVERT 10
    CONSTANT      0 # ICONVERT 11
    CONSTANT      0 # ICONVERT 12
    CONSTANT      0 # ICONVERT 13
    CONSTANT      0 # ICONVERT 14
    CONSTANT      0 # ICONVERT 15
    CONSTANT      0 # ICONVERT 16
    CONSTANT      0 # ICONVERT 17
    CONSTANT      0 # ICONVERT 18
    CONSTANT      0 # ICONVERT 19
    CONSTANT      0 # ICONVERT 20
    CONSTANT      0 # ICONVERT 21
    CONSTANT      0 # ICONVERT 22
    CONSTANT      0 # ICONVERT 23
    CONSTANT      0 # ICONVERT 24
    CONSTANT      0 # ICONVERT 25
    CONSTANT      0 # ICONVERT 26
    CONSTANT      0 # ICONVERT 27
    CONSTANT      0 # ICONVERT 28
    CONSTANT      0 # ICONVERT 29
    CONSTANT      0 # ICONVERT 30
    CONSTANT      0 # ICONVERT 31
    CONSTANT      0 # ICONVERT 32
    CONSTANT      0 # ICONVERT 33
    CONSTANT      0 # ICONVERT 34
    CONSTANT      0 # ICONVERT 35
    CONSTANT      0 # ICONVERT 36
    CONSTANT      0 # ICONVERT 37
    CONSTANT      0 # ICONVERT 38
    CONSTANT      0 # ICONVERT 39
    CONSTANT      0 # ICONVERT 40
    CONSTANT      0 # ICONVERT 41
    CONSTANT      0 # ICONVERT 42
    CONSTANT      0 # ICONVERT 43
    CONSTANT      0 # ICONVERT 44
    CONSTANT      0 # ICONVERT 45
    CONSTANT      0 # ICONVERT 46
    CONSTANT      0 # ICONVERT 47
    CONSTANT      0 # ICONVERT 48
    CONSTANT      0 # ICONVERT 49
    CONSTANT      0 # ICONVERT 50
    CONSTANT      0 # ICONVERT 51
    CONSTANT      0 # ICONVERT 52
    CONSTANT      0 # ICONVERT 53
    CONSTANT      0 # ICONVERT 54
    CONSTANT      0 # ICONVERT 55
    CONSTANT      0 # ICONVERT 56
    CONSTANT      0 # ICONVERT 57
    CONSTANT      0 # ICONVERT 58
    CONSTANT      0 # ICONVERT 59
    CONSTANT      0 # ICONVERT 60
    CONSTANT      0 # ICONVERT 61
    CONSTANT      0 # ICONVERT 62
    CONSTANT      0 # ICONVERT 63
    CONSTANT      0 # ICONVERT 64
    CONSTANT      0 # ICONVERT 65
    CONSTANT      0 # ICONVERT 66
    CONSTANT      0 # ICONVERT 67
    CONSTANT      0 # ICONVERT 68
    CONSTANT      0 # ICONVERT 69
    CONSTANT      0 # ICONVERT 70
    CONSTANT      0 # ICONVERT 71
    CONSTANT      0 # ICONVERT 72
    CONSTANT      0 # ICONVERT 73
    CONSTANT      0 # ICONVERT 74
    CONSTANT      0 # ICONVERT 75
    CONSTANT      0 # ICONVERT 76
    CONSTANT      0 # ICONVERT 77
    CONSTANT      0 # ICONVERT 78
    CONSTANT      0 # ICONVERT 79
    CONSTANT      0 # ICONVERT 80
    CONSTANT      0 # ICONVERT 81
    CONSTANT      0 # ICONVERT 82
    CONSTANT      0 # ICONVERT 83
    CONSTANT      0 # ICONVERT 84
    CONSTANT      0 # ICONVERT 85
    CONSTANT      0 # ICONVERT 86
    CONSTANT      0 # ICONVERT 87
    CONSTANT      0 # ICONVERT 88
    CONSTANT      0 # ICONVERT 89
    CONSTANT      0 # ICONVERT 90
    CONSTANT      0 # ICONVERT 91
    CONSTANT      0 # ICONVERT 92
    CONSTANT      0 # ICONVERT 93
    CONSTANT      0 # ICONVERT 94
    CONSTANT      0 # ICONVERT 95
    CONSTANT      0 # ICONVERT 96
    CONSTANT      0 # ICONVERT 97
    CONSTANT      0 # ICONVERT 98
    CONSTANT      0 # ICONVERT 99
    CONSTANT      0 # ICONVERT 100
  SS LAYERED IPRN    12
    CONSTANT   1.000000000000E-005  # SS 1

    CONSTANT   1.000000000000E-005  # SS 2

    CONSTANT   1.000000000000E-005  # SS 3

    CONSTANT   1.000000000000E-005  # SS 4

    CONSTANT   1.000000000000E-005  # SS 5

    CONSTANT   1.000000000000E-005  # SS 6

    CONSTANT   1.000000000000E-005  # SS 7

    CONSTANT   1.000000000000E-005  # SS 8

    CONSTANT   1.000000000000E-005  # SS 9

    CONSTANT   1.000000000000E-005  # SS 10

    CONSTANT   1.000000000000E-005  # SS 11

    CONSTANT   1.000000000000E-005  # SS 12

    CONSTANT   1.000000000000E-005  # SS 13

    CONSTANT   1.000000000000E-005  # SS 14

    CONSTANT   1.000000000000E-005  # SS 15

    CONSTANT   1.000000000000E-005  # SS 16

    CONSTANT   1.000000000000E-005  # SS 17

    CONSTANT   1.000000000000E-005  # SS 18

    CONSTANT   1.000000000000E-005  # SS 19

    CONSTANT   1.000000000000E-005  # SS 20

    CONSTANT   1.000000000000E-005  # SS 21

    CONSTANT   1.000000000000E-005  # SS 22

    CONSTANT   1.000000000000E-005  # SS 23

    CONSTANT   1.000000000000E-005  # SS 24

    CONSTANT   1.000000000000E-005  # SS 25

    CONSTANT   1.000000000000E-005  # SS 26

    CONSTANT   1.000000000000E-005  # SS 27

    CONSTANT   1.000000000000E-005  # SS 28

    CONSTANT   1.000000000000E-005  # SS 29

    CONSTANT   1.000000000000E-005  # SS 30

    CONSTANT   1.000000000000E-005  # SS 31

    CONSTANT   1.000000000000E-005  # SS 32

    CONSTANT   1.000000000000E-005  # SS 33

    CONSTANT   1.000000000000E-005  # SS 34

    CONSTANT   1.000000000000E-005  # SS 35

    CONSTANT   1.000000000000E-005  # SS 36

    CONSTANT   1.000000000000E-005  # SS 37

    CONSTANT   1.000000000000E-005  # SS 38

    CONSTANT   1.000000000000E-005  # SS 39

    CONSTANT   1.000000000000E-005  # SS 40

    CONSTANT   1.000000000000E-005  # SS 41

    CONSTANT   1.000000000000E-005  # SS 42

    CONSTANT   1.000000000000E-005  # SS 43

    CONSTANT   1.000000000000E-005  # SS 44

    CONSTANT   1.000000000000E-005  # SS 45

    CONSTANT   1.000000000000E-005  # SS 46

    CONSTANT   1.000000000000E-005  # SS 47

    CONSTANT   1.000000000000E-005  # SS 48

    CONSTANT   1.000000000000E-005  # SS 49

    CONSTANT   1.000000000000E-005  # SS 50

    CONSTANT   1.000000000000E-005  # SS 51

    CONSTANT   1.000000000000E-005  # SS 52

    CONSTANT   1.000000000000E-005  # SS 53

    CONSTANT   1.000000000000E-005  # SS 54

    CONSTANT   1.000000000000E-005  # SS 55

    CONSTANT   1.000000000000E-005  # SS 56

    CONSTANT   1.000000000000E-005  # SS 57

    CONSTANT   1.000000000000E-005  # SS 58

    CONSTANT   1.000000000000E-005  # SS 59

    CONSTANT   1.000000000000E-005  # SS 60

    CONSTANT   1.000000000000E-005  # SS 61

    CONSTANT   1.000000000000E-005  # SS 62

    CONSTANT   1.000000000000E-005  # SS 63

    CONSTANT   1.000000000000E-005  # SS 64

    CONSTANT   1.000000000000E-005  # SS 65

    CONSTANT   1.000000000000E-005  # SS 66

    CONSTANT   1.000000000000E-005  # SS 67

    CONSTANT   1.000000000000E-005  # SS 68

    CONSTANT   1.000000000000E-005  # SS 69

    CONSTANT   1.000000000000E-005  # SS 70

    CONSTANT   1.000000000000E-005  # SS 71

    CONSTANT   1.000000000000E-005  # SS 72

    CONSTANT   1.000000000000E-005  # SS 73

    CONSTANT   1.000000000000E-005  # SS 74

    CONSTANT   1.000000000000E-005  # SS 75

    CONSTANT   1.000000000000E-005  # SS 76

    CONSTANT   1.000000000000E-005  # SS 77

    CONSTANT   1.000000000000E-005  # SS 78

    CONSTANT   1.000000000000E-005  # SS 79

    CONSTANT   1.000000000000E-005  # SS 80

    CONSTANT   1.000000000000E-005  # SS 81

    CONSTANT   1.000000000000E-005  # SS 82

    CONSTANT   1.000000000000E-005  # SS 83

    CONSTANT   1.000000000000E-005  # SS 84

    CONSTANT   1.000000000000E-005  # SS 85

    CONSTANT   1.000000000000E-005  # SS 86

    CONSTANT   1.000000000000E-005  # SS 87

    CONSTANT   1.000000000000E-005  # SS 88

    CONSTANT   1.000000000000E-005  # SS 89

    CONSTANT   1.000000000000E-005  # SS 90

    CONSTANT   1.000000000000E-005  # SS 91

    CONSTANT   1.000000000000E-005  # SS 92

    CONSTANT   1.000000000000E-005  # SS 93

    CONSTANT   1.000000000000E-005  # SS 94

    CONSTANT   1.000000000000E-005  # SS 95

    CONSTANT   1.000000000000E-005  # SS 96

    CONSTANT   1.000000000000E-005  # SS 97

    CONSTANT   1.000000000000E-005  # SS 98

    CONSTANT   1.000000000000E-005  # SS 99

    CONSTANT   1.000000000000E-005  # SS 100

  SY LAYERED IPRN    12
    CONSTANT   1.500000000000E-001  # SY 1

    CONSTANT   1.500000000000E-001  # SY 2

    CONSTANT   1.500000000000E-001  # SY 3

    CONSTANT   1.500000000000E-001  # SY 4

    CONSTANT   1.500000000000E-001  # SY 5

    CONSTANT   1.500000000000E-001  # SY 6

    CONSTANT   1.500000000000E-001  # SY 7

    CONSTANT   1.500000000000E-001  # SY 8

    CONSTANT   1.500000000000E-001  # SY 9

    CONSTANT   1.500000000000E-001  # SY 10

    CONSTANT   1.500000000000E-001  # SY 11

    CONSTANT   1.500000000000E-001  # SY 12

    CONSTANT   1.500000000000E-001  # SY 13

    CONSTANT   1.500000000000E-001  # SY 14

    CONSTANT   1.500000000000E-001  # SY 15

    CONSTANT   1.500000000000E-001  # SY 16

    CONSTANT   1.500000000000E-001  # SY 17

    CONSTANT   1.500000000000E-001  # SY 18

    CONSTANT   1.500000000000E-001  # SY 19

    CONSTANT   1.500000000000E-001  # SY 20

    CONSTANT   1.500000000000E-001  # SY 21

    CONSTANT   1.500000000000E-001  # SY 22

    CONSTANT   1.500000000000E-001  # SY 23

    CONSTANT   1.500000000000E-001  # SY 24

    CONSTANT   1.500000000000E-001  # SY 25

    CONSTANT   1.500000000000E-001  # SY 26

    CONSTANT   1.500000000000E-001  # SY 27

    CONSTANT   1.500000000000E-001  # SY 28

    CONSTANT   1.500000000000E-001  # SY 29

    CONSTANT   1.500000000000E-001  # SY 30

    CONSTANT   1.500000000000E-001  # SY 31

    CONSTANT   1.500000000000E-001  # SY 32

    CONSTANT   1.500000000000E-001  # SY 33

    CONSTANT   1.500000000000E-001  # SY 34

    CONSTANT   1.500000000000E-001  # SY 35

    CONSTANT   1.500000000000E-001  # SY 36

    CONSTANT   1.500000000000E-001  # SY 37

    CONSTANT   1.500000000000E-001  # SY 38

    CONSTANT   1.500000000000E-001  # SY 39

    CONSTANT   1.500000000000E-001  # SY 40

    CONSTANT   1.500000000000E-001  # SY 41

    CONSTANT   1.500000000000E-001  # SY 42

    CONSTANT   1.500000000000E-001  # SY 43

    CONSTANT   1.500000000000E-001  # SY 44

    CONSTANT   1.500000000000E-001  # SY 45

    CONSTANT   1.500000000000E-001  # SY 46

    CONSTANT   1.500000000000E-001  # SY 47

    CONSTANT   1.500000000000E-001  # SY 48

    CONSTANT   1.500000000000E-001  # SY 49

    CONSTANT   1.500000000000E-001  # SY 50

    CONSTANT   1.500000000000E-001  # SY 51

    CONSTANT   1.500000000000E-001  # SY 52

    CONSTANT   1.500000000000E-001  # SY 53

    CONSTANT   1.500000000000E-001  # SY 54

    CONSTANT   1.500000000000E-001  # SY 55

    CONSTANT   1.500000000000E-001  # SY 56

    CONSTANT   1.500000000000E-001  # SY 57

    CONSTANT   1.500000000000E-001  # SY 58

    CONSTANT   1.500000000000E-001  # SY 59

    CONSTANT   1.500000000000E-001  # SY 60

    CONSTANT   1.500000000000E-001  # SY 61

    CONSTANT   1.500000000000E-001  # SY 62

    CONSTANT   1.500000000000E-001  # SY 63

    CONSTANT   1.500000000000E-001  # SY 64

    CONSTANT   1.500000000000E-001  # SY 65

    CONSTANT   1.500000000000E-001  # SY 66

    CONSTANT   1.500000000000E-001  # SY 67

    CONSTANT   1.500000000000E-001  # SY 68

    CONSTANT   1.500000000000E-001  # SY 69

    CONSTANT   1.500000000000E-001  # SY 70

    CONSTANT   1.500000000000E-001  # SY 71

    CONSTANT   1.500000000000E-001  # SY 72

    CONSTANT   1.500000000000E-001  # SY 73

    CONSTANT   1.500000000000E-001  # SY 74

    CONSTANT   1.500000000000E-001  # SY 75

    CONSTANT   1.500000000000E-001  # SY 76

    CONSTANT   1.500000000000E-001  # SY 77

    CONSTANT   1.500000000000E-001  # SY 78

    CONSTANT   1.500000000000E-001  # SY 79

    CONSTANT   1.500000000000E-001  # SY 80

    CONSTANT   1.500000000000E-001  # SY 81

    CONSTANT   1.500000000000E-001  # SY 82

    CONSTANT   1.500000000000E-001  # SY 83

    CONSTANT   1.500000000000E-001  # SY 84

    CONSTANT   1.500000000000E-001  # SY 85

    CONSTANT   1.500000000000E-001  # SY 86

    CONSTANT   1.500000000000E-001  # SY 87

    CONSTANT   1.500000000000E-001  # SY 88

    CONSTANT   1.500000000000E-001  # SY 89

    CONSTANT   1.500000000000E-001  # SY 90

    CONSTANT   1.500000000000E-001  # SY 91

    CONSTANT   1.500000000000E-001  # SY 92

    CONSTANT   1.500000000000E-001  # SY 93

    CONSTANT   1.500000000000E-001  # SY 94

    CONSTANT   1.500000000000E-001  # SY 95

    CONSTANT   1.500000000000E-001  # SY 96

    CONSTANT   1.500000000000E-001  # SY 97

    CONSTANT   1.500000000000E-001  # SY 98

    CONSTANT   1.500000000000E-001  # SY 99

    CONSTANT   1.500000000000E-001  # SY 100

END GRIDDATA

BEGIN PERIOD      1
  TRANSIENT
END PERIOD 

