# SFR: MODFLOW-6 Stream Flow Routing package file created on 7/28/2023 by ModelMuse version 5.1.1.34.
BEGIN OPTIONS
  AUXILIARY Salinity Temperature Density
    PRINT_INPUT
    PRINT_STAGE
    PRINT_FLOWS
    BOUNDNAMES
    SAVE_FLOWS
    STAGE FILEOUT BuoyancySFR.stage
    BUDGET FILEOUT BuoyancySFR.sfr_budget
  PACKAGE_CONVERGENCE FILEOUT BuoyancySFR.SfrConvergence.CSV
    MAXIMUM_ITERATIONS   100
    MAXIMUM_DEPTH_CHANGE  1.000000000000E-005 
    UNIT_CONVERSION  8.640000000000E+004 
END OPTIONS

BEGIN DIMENSIONS
    NREACHES      8
END DIMENSIONS

BEGIN PACKAGEDATA
# <rno>   <cellid>        <rlen>                <rwid>                <rgrd>                <rtp>                 <rbth>                <rhk>                 <man>                <ncon> <ustrf>                  <ndv> [<aux(naux)>] [<boundname>]
# defined by Object2
     1     1     1    95  3.540083290524E+000   1.000000000000E-001   1.000000000000E-003   1.000000000000E+000   1.000000000000E+000   1.000000000000E-002   3.000000000000E-002      1  1.000000000000E+000      0  0.000000000000E+000   0.000000000000E+000   0.000000000000E+000   0.000000000000E+000  Object2
     2     1     1    96  1.000000000000E+001   1.000000000000E-001   1.000000000000E-003   1.000000000000E+000   1.000000000000E+000   1.000000000000E-002   3.000000000000E-002      2  1.000000000000E+000      0  0.000000000000E+000   0.000000000000E+000   0.000000000000E+000   0.000000000000E+000  Object2
     3     1     1    97  1.000000000000E+001   1.000000000000E-001   1.000000000000E-003   1.000000000000E+000   1.000000000000E+000   1.000000000000E-002   3.000000000000E-002      2  1.000000000000E+000      0  0.000000000000E+000   0.000000000000E+000   0.000000000000E+000   0.000000000000E+000  Object2
     4     1     1    98  1.000000000000E+001   1.000000000000E-001   1.000000000000E-003   1.000000000000E+000   1.000000000000E+000   1.000000000000E-002   3.000000000000E-002      2  1.000000000000E+000      0  0.000000000000E+000   0.000000000000E+000   0.000000000000E+000   0.000000000000E+000  Object2
     5     1     1    99  1.000000000000E+001   1.000000000000E-001   1.000000000000E-003   1.000000000000E+000   1.000000000000E+000   1.000000000000E-002   3.000000000000E-002      2  1.000000000000E+000      0  0.000000000000E+000   0.000000000000E+000   0.000000000000E+000   0.000000000000E+000  Object2
     6     1     1   100  1.000000000000E+001   1.000000000000E-001   1.000000000000E-003   1.000000000000E+000   1.000000000000E+000   1.000000000000E-002   3.000000000000E-002      2  1.000000000000E+000      0  0.000000000000E+000   0.000000000000E+000   0.000000000000E+000   0.000000000000E+000  Object2
     7     1     1   101  1.000000000000E+001   1.000000000000E-001   1.000000000000E-003   1.000000000000E+000   1.000000000000E+000   1.000000000000E-002   3.000000000000E-002      2  1.000000000000E+000      0  0.000000000000E+000   0.000000000000E+000   0.000000000000E+000   0.000000000000E+000  Object2
     8     1     1   102  7.866079857041E+000   1.000000000000E-001   1.000000000000E-003   1.000000000000E+000   1.000000000000E+000   1.000000000000E-002   3.000000000000E-002      1  1.000000000000E+000      0  0.000000000000E+000   0.000000000000E+000   0.000000000000E+000   0.000000000000E+000  Object2
END PACKAGEDATA

BEGIN CONNECTIONDATA
# defined by Object2
     1    -2
     2     1    -3
     3     2    -4
     4     3    -5
     5     4    -6
     6     5    -7
     7     6    -8
     8     7
END CONNECTIONDATA

BEGIN PERIOD      1
# rno sfrsetting (defined by Object2)
     1 STATUS SIMPLE
     1 UPSTREAM_FRACTION  1.000000000000E+000 
     1 STAGE  1.010000000000E+003 
     1 INFLOW  0.000000000000E+000 
     1 RAINFALL  0.000000000000E+000 
     1 EVAPORATION  0.000000000000E+000 
     1 RUNOFF  0.000000000000E+000 
     1 AUXILIARY DENSITY  1.035000000000E+003 

     2 STATUS SIMPLE
     2 UPSTREAM_FRACTION  1.000000000000E+000 
     2 STAGE  1.010000000000E+003 
     2 INFLOW  0.000000000000E+000 
     2 RAINFALL  0.000000000000E+000 
     2 EVAPORATION  0.000000000000E+000 
     2 RUNOFF  0.000000000000E+000 
     2 AUXILIARY DENSITY  1.035000000000E+003 

     3 STATUS SIMPLE
     3 UPSTREAM_FRACTION  1.000000000000E+000 
     3 STAGE  1.010000000000E+003 
     3 INFLOW  0.000000000000E+000 
     3 RAINFALL  0.000000000000E+000 
     3 EVAPORATION  0.000000000000E+000 
     3 RUNOFF  0.000000000000E+000 
     3 AUXILIARY DENSITY  1.035000000000E+003 

     4 STATUS SIMPLE
     4 UPSTREAM_FRACTION  1.000000000000E+000 
     4 STAGE  1.010000000000E+003 
     4 INFLOW  0.000000000000E+000 
     4 RAINFALL  0.000000000000E+000 
     4 EVAPORATION  0.000000000000E+000 
     4 RUNOFF  0.000000000000E+000 
     4 AUXILIARY DENSITY  1.035000000000E+003 

     5 STATUS SIMPLE
     5 UPSTREAM_FRACTION  1.000000000000E+000 
     5 STAGE  1.010000000000E+003 
     5 INFLOW  0.000000000000E+000 
     5 RAINFALL  0.000000000000E+000 
     5 EVAPORATION  0.000000000000E+000 
     5 RUNOFF  0.000000000000E+000 
     5 AUXILIARY DENSITY  1.035000000000E+003 

     6 STATUS SIMPLE
     6 UPSTREAM_FRACTION  1.000000000000E+000 
     6 STAGE  1.010000000000E+003 
     6 INFLOW  0.000000000000E+000 
     6 RAINFALL  0.000000000000E+000 
     6 EVAPORATION  0.000000000000E+000 
     6 RUNOFF  0.000000000000E+000 
     6 AUXILIARY DENSITY  1.035000000000E+003 

     7 STATUS SIMPLE
     7 UPSTREAM_FRACTION  1.000000000000E+000 
     7 STAGE  1.010000000000E+003 
     7 INFLOW  0.000000000000E+000 
     7 RAINFALL  0.000000000000E+000 
     7 EVAPORATION  0.000000000000E+000 
     7 RUNOFF  0.000000000000E+000 
     7 AUXILIARY DENSITY  1.035000000000E+003 

     8 STATUS SIMPLE
     8 UPSTREAM_FRACTION  1.000000000000E+000 
     8 STAGE  1.010000000000E+003 
     8 INFLOW  0.000000000000E+000 
     8 RAINFALL  0.000000000000E+000 
     8 EVAPORATION  0.000000000000E+000 
     8 RUNOFF  0.000000000000E+000 
     8 AUXILIARY DENSITY  1.035000000000E+003 

     8 AUXILIARY  Salinity  0.000000000000E+000 
     8 AUXILIARY  Temperature  0.000000000000E+000 
     8 AUXILIARY  Density  0.000000000000E+000 
END PERIOD 

