# BUY: Buoyancy Package) file created on 7/28/2023 by ModelMuse version 5.1.1.34.
BEGIN OPTIONS
  DENSEREF  1.000000000000E+003 
  DENSITY FILEOUT Buoyancy.density
END OPTIONS

BEGIN DIMENSIONS
  NRHOSPECIES     2
END DIMENSIONS

BEGIN PACKAGEDATA
     1  7.000000000000E-001   0.000000000000E+000  Salinity Salinity
     2 -3.750000000000E-001   2.500000000000E+001  Temperature Temperature
END PACKAGEDATA

