# LAK: Lake package for MODFLOW 6 file created on 2/23/2024 by ModelMuse version 5.1.1.56.
BEGIN OPTIONS
  AUXILIARY Salinity Temperature Density Viscosity
    BOUNDNAMES
    PRINT_INPUT
    SAVE_FLOWS
  PACKAGE_CONVERGENCE FILEOUT BuoyancyLAK.LakConvergence.CSV
  SURFDEP   2.000000000000E-001 
  MAXIMUM_ITERATIONS    100
  MAXIMUM_STAGE_CHANGE   1.000000000000E-005 
  TIME_CONVERSION   8.640000000000E+004 
  LENGTH_CONVERSION   1.000000000000E+000 
END OPTIONS

BEGIN DIMENSIONS
  NLAKES      1
  NOUTLETS      0
  NTABLES      1
END DIMENSIONS

BEGIN PACKAGEDATA
# <lakeno> <strt> <nlakeconn> [<aux(naux)>] [<boundname>]
       1  2.000000000000E+000      1  0.000000000000E+000   0.000000000000E+000   0.000000000000E+000   0.000000000000E+000  'Object2' 
END PACKAGEDATA

BEGIN CONNECTIONDATA
# lakeno iconn cellid(ncelldim)   claktype    bedleak               belev                 telev                 connlen               connwidth
       1     1     1     1   100  EMBEDDEDV  1.000000000000E+000  -9.000000000000E+000   1.000000000000E+000   1.000000000000E+000   0.000000000000E+000 
END CONNECTIONDATA

BEGIN TABLES
       1 TAB6 FILEIN BuoyancyLAK.1.laktab
END TABLES

BEGIN PERIOD      1
       1 STATUS CONSTANT
       1  STAGE  2.000000000000E+000 
       1  RAINFALL  0.000000000000E+000 
       1  EVAPORATION  0.000000000000E+000 
       1  RUNOFF  0.000000000000E+000 
       1  INFLOW  0.000000000000E+000 
       1  WITHDRAWAL  0.000000000000E+000 
       1 AUXILIARY DENSITY  1.035000000000E+003 
       1 AUXILIARY VISCOSITY  8.904000000000E-004 
END PERIOD 

