# Transport name file for Salinity file created on 7/28/2023 by ModelMuse version 5.1.1.34.
BEGIN OPTIONS
  LIST Buoyancy.Salinity.lst
    PRINT_INPUT
    SAVE_FLOWS
END OPTIONS

BEGIN PACKAGES
  DIS6 Buoyancy.Salinity.dis
  OC6 Buoyancy.Salinity.oc
  ADV6 Buoyancy.Salinity.adv
  DSP6 Buoyancy.Salinity.dsp
  SSM6 Buoyancy.Salinity.ssm
  IC6 Buoyancy.Salinity.ic
  MST6 Buoyancy.Salinity.mst
END PACKAGES
