BEGIN TIMING
  TDIS6 'BuoyancySFR.tdis'
END TIMING

BEGIN MODELS
  GWF6 'BuoyancySFR.nam' 'MODFLOW'
  GWT6 'BuoyancySFR.Salinity.Gwt_nam' 'Salinity'
  GWT6 'BuoyancySFR.Temperature.Gwt_nam' 'Temperature'
END MODELS

BEGIN EXCHANGES
  GWF6-GWT6 BuoyancySFR.Salinity.gwfgwt MODFLOW Salinity
  GWF6-GWT6 BuoyancySFR.Temperature.gwfgwt MODFLOW Temperature
END EXCHANGES

BEGIN SOLUTIONGROUP     1
  MXITER     1
  IMS6 'BuoyancySFR.ims' 'MODFLOW' 
  IMS6 'BuoyancySFR.Salinity.ims' 'Salinity' 
  IMS6 'BuoyancySFR.Temperature.ims' 'Temperature' 
END SOLUTIONGROUP

