# Name File for MODFLOW created on 2/15/2024 by ModelMuse Version 5.1.1.55
BEGIN OPTIONS
  LIST BuoyancyLAK.lst
  PRINT_INPUT
  SAVE_FLOWS
END OPTIONS

BEGIN PACKAGES
  DIS6         BuoyancyLAK.dis  DIS
  IC6          BuoyancyLAK.ic  IC
  NPF6         BuoyancyLAK.npf  NPF
  STO6         BuoyancyLAK.sto  STO
  OC6          BuoyancyLAK.oc  OC
  GHB6         BuoyancyLAK.ghb  GHB-1
  WEL6         BuoyancyLAK.wel  WEL-1
  BUY6         BuoyancyLAK.buy  BUY6
  VSC6         BuoyancyLAK.vsc  VSC6
  LAK6         BuoyancyLAK.lak6  LAK-1
END PACKAGES
