# WEL: Well package file created on 7/9/2024 by ModelMuse version 5.3.0.0.
BEGIN OPTIONS
    AUXILIARY IFACE multiplier
    BOUNDNAMES
    PRINT_INPUT
    SAVE_FLOWS
    TS6 FILEIN ChdMult.wel.ChdMult.ts
  AUXMULTNAME multiplier
    AUTO_FLOW_REDUCE  1.000000000000E-006 
END OPTIONS

BEGIN DIMENSIONS
  MAXBOUND     1
END DIMENSIONS

BEGIN PERIOD      1
     1     3     7 -1.000000000000E-006      0 MyMult 'Object7'  # Data Set 6: Layer Row Column Q IFACE boundname Intersected by Object7 with formula: -1E-6
END PERIOD 

BEGIN PERIOD      3
END PERIOD 

