# Name File for MODFLOW created on 7/9/2024 by ModelMuse Version 5.3.0.0
BEGIN OPTIONS
  LIST ..\..\output\output.ChdMult\ChdMult.lst
  PRINT_INPUT
  SAVE_FLOWS
END OPTIONS

BEGIN PACKAGES
  DIS6         ..\..\model\model.ChdMult\ChdMult.dis  DIS
  IC6          ..\..\model\model.ChdMult\ChdMult.ic  IC
  NPF6         ..\..\model\model.ChdMult\ChdMult.npf  NPF
  STO6         ..\..\model\model.ChdMult\ChdMult.sto  STO
  OC6          ..\..\model\model.ChdMult\ChdMult.oc  OC
  CHD6         ..\..\model\model.ChdMult\ChdMult.chd  CHD-1
  GHB6         ..\..\model\model.ChdMult\ChdMult.ghb  GHB-1
  WEL6         ..\..\model\model.ChdMult\ChdMult.wel  WEL-1
  RIV6         ..\..\model\model.ChdMult\ChdMult.riv  RIV-1
  DRN6         ..\..\model\model.ChdMult\ChdMult.drn  DRN-1
  RCH6         ..\..\model\model.ChdMult\ChdMult.rch  RCH-1
  EVT6         ..\..\model\model.ChdMult\ChdMult.evt  EVT-1
END PACKAGES
