# ETS: Evapotranspiration Segments package file created on 7/9/2024 by ModelMuse version 5.3.0.0.
BEGIN OPTIONS
  AUXILIARY IFACE multiplier
  PRINT_INPUT
    SAVE_FLOWS
    BOUNDNAMES
  FIXED_CELL
    TS6 FILEIN ChdMult.evt.ChdMult.ts
  AUXMULTNAME multiplier
END OPTIONS

BEGIN DIMENSIONS
  MAXBOUND     1
  NSEG     1
END DIMENSIONS

BEGIN PERIOD      1
     1     5     3  0.000000000000E+000   1.000000000000E-008   2.000000000000E+000      0 MyMult 'Object3' 
END PERIOD 

BEGIN PERIOD      2
     1     5     3  0.000000000000E+000   1.000000000000E-008   2.000000000000E+000      0 MyMult 'Object3' 
END PERIOD 

BEGIN PERIOD      3
     1     5     3  0.000000000000E+000   1.000000000000E-008   2.000000000000E+000      0 MyMult 'Object3' 
END PERIOD 

