# RCH: Recharge package file created on 7/9/2024 by ModelMuse version 5.3.0.0.
BEGIN OPTIONS
  AUXILIARY IFACE multiplier
  PRINT_INPUT
    SAVE_FLOWS
    BOUNDNAMES
  FIXED_CELL
    TS6 FILEIN ChdMult.rch.ChdMult.ts
  AUXMULTNAME multiplier
END OPTIONS

BEGIN DIMENSIONS
  MAXBOUND     1
END DIMENSIONS

BEGIN PERIOD      1
     1     8     5  1.000000000000E-005      0 MyMult 'Object5' 
END PERIOD 

BEGIN PERIOD      2
     1     8     5  1.000000000000E-005      0 MyMult 'Object5' 
END PERIOD 

BEGIN PERIOD      3
END PERIOD 

