# Output Control file created on 7/9/2024 by ModelMuse version 5.3.0.0.
BEGIN OPTIONS
  BUDGET FILEOUT 'ChdMult.cbc'
  HEAD FILEOUT 'ChdMult.bhd'
END OPTIONS

BEGIN PERIOD      1
  SAVE HEAD ALL
  PRINT BUDGET ALL
  SAVE BUDGET ALL
END PERIOD 

BEGIN PERIOD      2
  SAVE HEAD ALL
  PRINT BUDGET ALL
  SAVE BUDGET ALL
END PERIOD 

BEGIN PERIOD      3
  SAVE HEAD ALL
  PRINT BUDGET ALL
  SAVE BUDGET ALL
END PERIOD 

