# Name File for MODFLOW created on 2/1/2017 by ModelMuse Version 3.8.1.27
LIST             11 ..\..\output\output.ChdTest5\ChdTest5.lst REPLACE
DATA(BINARY)      9 ..\..\output\output.ChdTest5\ChdTest5.cbc REPLACE
DIS              12 ..\..\model\model.ChdTest5\ChdTest5.dis OLD
BAS6             13 ..\..\model\model.ChdTest5\ChdTest5.bas OLD
OC               39 ..\..\model\model.ChdTest5\ChdTest5.oc OLD
DATA             37 ..\..\output\output.ChdTest5\ChdTest5.fhd REPLACE
DATA             38 ..\..\output\output.ChdTest5\ChdTest5.fdn REPLACE
PCG              18 ..\..\model\model.ChdTest5\ChdTest5.pcg OLD
LPF              14 ..\..\model\model.ChdTest5\ChdTest5.lpf OLD
CHD              17 ..\..\model\model.ChdTest5\ChdTest5.chd OLD
GHB              19 ..\..\model\model.ChdTest5\ChdTest5.ghb OLD
WEL              20 ..\..\model\model.ChdTest5\ChdTest5.wel OLD
RIV              21 ..\..\model\model.ChdTest5\ChdTest5.riv OLD
DRN              22 ..\..\model\model.ChdTest5\ChdTest5.drn OLD
DRT              23 ..\..\model\model.ChdTest5\ChdTest5.drt OLD
SFR              29 ..\..\model\model.ChdTest5\ChdTest5.sfr OLD
