# Name File for MODFLOW created on 12/14/2015 by ModelMuse
LIST             11 ChdTest3.lst REPLACE
DATA(BINARY)      9 ChdTest3.cbc REPLACE
DIS              12 ChdTest3.dis OLD
BAS6             13 ChdTest3.bas OLD
OC               39 ChdTest3.oc OLD
DATA             37 ChdTest3.fhd REPLACE
DATA             38 ChdTest3.fdn REPLACE
DE4              36 ChdTest3.de4 OLD
LPF              14 ChdTest3.lpf OLD
CHD              17 ChdTest3.chd OLD
ZONE             15 ChdTest3.zon OLD
MULT             16 ChdTest3.mlt OLD
PVAL             52 ChdTest3.pval OLD
