# Name File for MODFLOW created on 12/14/2015 by ModelMuse
LIST             11 ChdTest.lst REPLACE
DATA(BINARY)      9 ChdTest.cbc REPLACE
DIS              12 ChdTest.dis OLD
BAS6             13 ChdTest.bas OLD
OC               39 ChdTest.oc OLD
DATA             37 ChdTest.fhd REPLACE
DATA             38 ChdTest.fdn REPLACE
PCG              18 ChdTest.pcg OLD
LPF              14 ChdTest.lpf OLD
CHD              17 ChdTest.chd OLD
PVAL             52 ChdTest.pval OLD
