# Name File for MODFLOW created on 12/14/2015 by ModelMuse
LIST             11 ChdTest5.lst REPLACE
DATA(BINARY)      9 ChdTest5.cbc REPLACE
DIS              12 ChdTest5.dis OLD
BAS6             13 ChdTest5.bas OLD
OC               39 ChdTest5.oc OLD
DATA             37 ChdTest5.fhd REPLACE
DATA             38 ChdTest5.fdn REPLACE
PCG              18 ChdTest5.pcg OLD
LPF              14 ChdTest5.lpf OLD
CHD              17 ChdTest5.chd OLD
GHB              19 ChdTest5.ghb OLD
WEL              20 ChdTest5.wel OLD
RIV              21 ChdTest5.riv OLD
DRN              22 ChdTest5.drn OLD
DRT              23 ChdTest5.drt OLD
SFR              29 ChdTest5.sfr OLD
