# Name File for MODFLOW created on 12/14/2015 by ModelMuse
LIST             11 ChdTest4.lst REPLACE
DATA(BINARY)      9 ChdTest4.cbc REPLACE
DIS              12 ChdTest4.dis OLD
BAS6             13 ChdTest4.bas OLD
OC               39 ChdTest4.oc OLD
DATA             37 ChdTest4.fhd REPLACE
DATA             38 ChdTest4.fdn REPLACE
PCG              18 ChdTest4.pcg OLD
LPF              14 ChdTest4.lpf OLD
CHD              17 ChdTest4.chd OLD
