# Name File for MODFLOW created on 12/14/2015 by ModelMuse
LIST             11 ChdTest2.lst REPLACE
DATA(BINARY)      9 ChdTest2.cbc REPLACE
DIS              12 ChdTest2.dis OLD
BAS6             13 ChdTest2.bas OLD
OC               39 ChdTest2.oc OLD
DATA             37 ChdTest2.fhd REPLACE
DATA             38 ChdTest2.fdn REPLACE
PCG              18 ChdTest2.pcg OLD
LPF              14 ChdTest2.lpf OLD
CHD              17 ChdTest2.chd OLD
PVAL             52 ChdTest2.pval OLD
