# Initial Conditions Package file created on 4/6/2021 by ModelMuse version 4.3.0.46.
BEGIN OPTIONS
END OPTIONS

BEGIN GRIDDATA
  STRT LAYERED IPRN    12
    CONSTANT   1.000000000000E+002  # STRT Layer 1

    CONSTANT   1.000000000000E+002  # STRT Layer 2

    CONSTANT   1.000000000000E+002  # STRT Layer 3

    CONSTANT   1.000000000000E+002  # STRT Layer 4

END GRIDDATA

