# Name File for MODFLOW created on 12/3/2021 by ModelMuse Version 4.3.0.74
BEGIN OPTIONS
  LIST ..\..\output\output.CSubExample\CSubExample.lst
  NEWTON
  PRINT_INPUT
  SAVE_FLOWS
END OPTIONS

BEGIN PACKAGES
  DIS6         ..\..\model\model.CSubExample\CSubExample.dis  DIS
  IC6          ..\..\model\model.CSubExample\CSubExample.ic  IC
  NPF6         ..\..\model\model.CSubExample\CSubExample.npf  NPF
  OBS6         ..\..\model\model.CSubExample\CSubExample.ob_gw
  STO6         ..\..\model\model.CSubExample\CSubExample.sto  STO
  OC6          ..\..\model\model.CSubExample\CSubExample.oc  OC
  CHD6         ..\..\model\model.CSubExample\CSubExample.chd  CHD-1
  WEL6         ..\..\model\model.CSubExample\CSubExample.wel  WEL-1
  RCH6         ..\..\model\model.CSubExample\CSubExample.rch  RCH-1
  CSUB6        ..\..\model\model.CSubExample\CSubExample.csub  CSUB
END PACKAGES
