# Output Control file created on 4/5/2021 by ModelMuse version 4.3.0.0.
BEGIN OPTIONS
  BUDGET FILEOUT 'CSubExample.cbc'
  HEAD FILEOUT 'CSubExample.bhd'
END OPTIONS

BEGIN PERIOD      1
  SAVE HEAD ALL
  PRINT BUDGET ALL
  SAVE BUDGET ALL
END PERIOD 

BEGIN PERIOD      2
  SAVE HEAD ALL
  PRINT BUDGET ALL
  SAVE BUDGET ALL
END PERIOD 

BEGIN PERIOD      3
  SAVE HEAD ALL
  PRINT BUDGET ALL
  SAVE BUDGET ALL
END PERIOD 

