# Initial Conditions Package file created on 11/21/2023 by ModelMuse version 5.1.1.45.
BEGIN GRIDDATA
  STRT LAYERED IPRN    12
    CONSTANT   1.000000000000E+002  # STRT Layer 1

    CONSTANT   1.000000000000E+002  # STRT Layer 2

    CONSTANT   1.000000000000E+002  # STRT Layer 3

    CONSTANT   1.000000000000E+002  # STRT Layer 4

END GRIDDATA

