BEGIN TIMING
  TDIS6 'CSubExample.tdis'
END TIMING

BEGIN MODELS
  GWF6 'CSubExample.nam' 'MODFLOW'
END MODELS

BEGIN EXCHANGES
END EXCHANGES

BEGIN SOLUTIONGROUP     1
  MXITER     1
  IMS6 'CSubExample.ims' 'MODFLOW' 
END SOLUTIONGROUP

