# IMS: Iterative Model Solution file created on 4/5/2021 by ModelMuse version 4.3.0.0.
BEGIN OPTIONS
  PRINT_OPTION ALL
  COMPLEXITY SIMPLE
  CSV_OUTPUT FILEOUT CSubExample.Solution.CSV
END OPTIONS

BEGIN NONLINEAR
  OUTER_HCLOSE   1.000000000000E-006 
  OUTER_MAXIMUM    100
  UNDER_RELAXATION NONE
  BACKTRACKING_NUMBER     0
END NONLINEAR

BEGIN LINEAR
  INNER_MAXIMUM   300
  INNER_HCLOSE  1.000000000000E-006 
  INNER_RCLOSE  1.000000000000E-002 
  LINEAR_ACCELERATION BICGSTAB
  RELAXATION_FACTOR  9.700000000000E-001 
END LINEAR

