# Discretization File created on 4/6/2021 by ModelMuse version 4.3.0.46.
# Upper left corner: (0, 0)
# Lower left corner: (0, -40000)
# Upper right corner: (30000, 0)
# Lower right corner: (30000, -40000)
# Grid angle (in degrees counterclockwise): 0
# Number of active cells = 852.
BEGIN OPTIONS
  LENGTH_UNITS METERS
  XORIGIN  0.000000000000E+000 
  YORIGIN -4.000000000000E+004 
  ANGROT  0.000000000000E+000 
END OPTIONS

BEGIN DIMENSIONS
  NLAY      4
  NROW     20
  NCOL     15
END DIMENSIONS


BEGIN GRIDDATA
  DELR IPRN    12
    CONSTANT   2.000000000000E+003  # DELR

  DELC IPRN    12
    CONSTANT   2.000000000000E+003  # DELC

  TOP LAYERED IPRN    12
    CONSTANT   1.500000000000E+002  # TOP

  BOTM LAYERED IPRN    12
    CONSTANT   5.000000000000E+001  # BOTM, Layer 1

    CONSTANT  -1.000000000000E+002  # BOTM, Layer 2

    CONSTANT  -1.500000000000E+002  # BOTM, Layer 3

    CONSTANT  -3.500000000000E+002  # BOTM, Layer 4

  IDOMAIN LAYERED
    INTERNAL IPRN      5 # IDOMAIN 1
           0     0     0     0     0     1     1     1     1     1
           0     0     0     0     0
           0     0     0     0     1     1     1     1     1     1
           1     1     0     0     0
           0     0     0     1     1     1     1     1     1     1
           1     1     0     0     0
           0     0     0     1     1     1     1     1     1     1
           1     1     0     0     0
           0     0     1     1     1     1     1     1     1     1
           1     1     1     0     0
           0     0     1     1     1     1     1     1     1     1
           1     1     1     1     0
           0     1     1     1     1     1     1     1     1     1
           1     1     1     1     0
           0     1     1     1     1     1     1     1     1     1
           1     1     1     1     0
           1     1     1     1     1     1     1     1     1     1
           1     1     1     1     1
           1     1     1     1     1     1     1     1     1     1
           1     1     1     1     1
           1     1     1     1     1     1     1     1     1     1
           1     1     1     1     1
           0     1     1     1     1     1     1     1     1     1
           1     1     1     1     1
           0     1     1     1     1     1     1     1     1     1
           1     1     1     1     0
           0     1     1     1     1     1     1     1     1     1
           1     1     1     1     0
           0     0     1     1     1     1     1     1     1     1
           1     1     1     0     0
           0     0     1     1     1     1     1     1     1     1
           1     1     1     0     0
           0     0     0     1     1     1     1     1     1     1
           1     1     1     0     0
           0     0     0     1     1     1     1     1     1     1
           1     1     0     0     0
           0     0     0     0     0     0     1     1     1     1
           0     0     0     0     0
           0     0     0     0     0     0     0     1     1     1
           0     0     0     0     0
    INTERNAL IPRN      5 # IDOMAIN 2
           0     0     0     0     0     1     1     1     1     1
           0     0     0     0     0
           0     0     0     0     1     1     1     1     1     1
           1     1     0     0     0
           0     0     0     1     1     1     1     1     1     1
           1     1     0     0     0
           0     0     0     1     1     1     1     1     1     1
           1     1     0     0     0
           0     0     1     1     1     1     1     1     1     1
           1     1     1     0     0
           0     0     1     1     1     1     1     1     1     1
           1     1     1     1     0
           0     1     1     1     1     1     1     1     1     1
           1     1     1     1     0
           0     1     1     1     1     1     1     1     1     1
           1     1     1     1     0
           1     1     1     1     1     1     1     1     1     1
           1     1     1     1     1
           1     1     1     1     1     1     1     1     1     1
           1     1     1     1     1
           1     1     1     1     1     1     1     1     1     1
           1     1     1     1     1
           0     1     1     1     1     1     1     1     1     1
           1     1     1     1     1
           0     1     1     1     1     1     1     1     1     1
           1     1     1     1     0
           0     1     1     1     1     1     1     1     1     1
           1     1     1     1     0
           0     0     1     1     1     1     1     1     1     1
           1     1     1     0     0
           0     0     1     1     1     1     1     1     1     1
           1     1     1     0     0
           0     0     0     1     1     1     1     1     1     1
           1     1     1     0     0
           0     0     0     1     1     1     1     1     1     1
           1     1     0     0     0
           0     0     0     0     0     0     1     1     1     1
           0     0     0     0     0
           0     0     0     0     0     0     0     1     1     1
           0     0     0     0     0
    INTERNAL IPRN      5 # IDOMAIN 3
           0     0     0     0     0     1     1     1     1     1
           0     0     0     0     0
           0     0     0     0     1     1     1     1     1     1
           1     1     0     0     0
           0     0     0     1     1     1     1     1     1     1
           1     1     0     0     0
           0     0     0     1     1     1     1     1     1     1
           1     1     0     0     0
           0     0     1     1     1     1     1     1     1     1
           1     1     1     0     0
           0     0     1     1     1     1     1     1     1     1
           1     1     1     1     0
           0     1     1     1     1     1     1     1     1     1
           1     1     1     1     0
           0     1     1     1     1     1     1     1     1     1
           1     1     1     1     0
           1     1     1     1     1     1     1     1     1     1
           1     1     1     1     1
           1     1     1     1     1     1     1     1     1     1
           1     1     1     1     1
           1     1     1     1     1     1     1     1     1     1
           1     1     1     1     1
           0     1     1     1     1     1     1     1     1     1
           1     1     1     1     1
           0     1     1     1     1     1     1     1     1     1
           1     1     1     1     0
           0     1     1     1     1     1     1     1     1     1
           1     1     1     1     0
           0     0     1     1     1     1     1     1     1     1
           1     1     1     0     0
           0     0     1     1     1     1     1     1     1     1
           1     1     1     0     0
           0     0     0     1     1     1     1     1     1     1
           1     1     1     0     0
           0     0     0     1     1     1     1     1     1     1
           1     1     0     0     0
           0     0     0     0     0     0     1     1     1     1
           0     0     0     0     0
           0     0     0     0     0     0     0     1     1     1
           0     0     0     0     0
    INTERNAL IPRN      5 # IDOMAIN 4
           0     0     0     0     0     1     1     1     1     1
           0     0     0     0     0
           0     0     0     0     1     1     1     1     1     1
           1     1     0     0     0
           0     0     0     1     1     1     1     1     1     1
           1     1     0     0     0
           0     0     0     1     1     1     1     1     1     1
           1     1     0     0     0
           0     0     1     1     1     1     1     1     1     1
           1     1     1     0     0
           0     0     1     1     1     1     1     1     1     1
           1     1     1     1     0
           0     1     1     1     1     1     1     1     1     1
           1     1     1     1     0
           0     1     1     1     1     1     1     1     1     1
           1     1     1     1     0
           1     1     1     1     1     1     1     1     1     1
           1     1     1     1     1
           1     1     1     1     1     1     1     1     1     1
           1     1     1     1     1
           1     1     1     1     1     1     1     1     1     1
           1     1     1     1     1
           0     1     1     1     1     1     1     1     1     1
           1     1     1     1     1
           0     1     1     1     1     1     1     1     1     1
           1     1     1     1     0
           0     1     1     1     1     1     1     1     1     1
           1     1     1     1     0
           0     0     1     1     1     1     1     1     1     1
           1     1     1     0     0
           0     0     1     1     1     1     1     1     1     1
           1     1     1     0     0
           0     0     0     1     1     1     1     1     1     1
           1     1     1     0     0
           0     0     0     1     1     1     1     1     1     1
           1     1     0     0     0
           0     0     0     0     0     0     1     1     1     1
           0     0     0     0     0
           0     0     0     0     0     0     0     1     1     1
           0     0     0     0     0
END GRIDDATA

