# OBS: Observation Utility file created on 4/5/2021 by ModelMuse version 4.3.0.0.
BEGIN OPTIONS
    DIGITS     10
    PRINT_INPUT
END OPTIONS

BEGIN CONTINUOUS FILEOUT CSubExample.ob_gw_out_head.csv
  'hd_H_1_9_10' head     1     9    10
  'hd_H_2_9_10' head     2     9    10
  'hd_H_3_9_10' head     3     9    10
  'hd_H_4_9_10' head     4     9    10
  'hd_H_1_12_8' head     1    12     8
  'hd_H_2_12_8' head     2    12     8
  'hd_H_3_12_8' head     3    12     8
  'hd_H_4_12_8' head     4    12     8
END CONTINUOUS

