# RCH: Recharge package file created on 4/5/2021 by ModelMuse version 4.3.0.0.
BEGIN OPTIONS
  AUXILIARY IFACE
  PRINT_INPUT
    SAVE_FLOWS
    BOUNDNAMES
  FIXED_CELL
END OPTIONS

BEGIN DIMENSIONS
  MAXBOUND    18
END DIMENSIONS

BEGIN PERIOD      1
     1    19     7  5.500000000000E-004      0 'Recharge' 
     1    18    12  5.500000000000E-004      0 'Recharge' 
     1    18     4  5.500000000000E-004      0 'Recharge' 
     1    17    13  5.500000000000E-004      0 'Recharge' 
     1    16    13  5.500000000000E-004      0 'Recharge' 
     1    16     3  5.500000000000E-004      0 'Recharge' 
     1    14    14  5.500000000000E-004      0 'Recharge' 
     1    14     2  5.500000000000E-004      0 'Recharge' 
     1     7     2  5.500000000000E-004      0 'Recharge' 
     1     6    14  5.500000000000E-004      0 'Recharge' 
     1     5    13  5.500000000000E-004      0 'Recharge' 
     1     5     3  5.500000000000E-004      0 'Recharge' 
     1     4    12  5.500000000000E-004      0 'Recharge' 
     1     3     4  5.500000000000E-004      0 'Recharge' 
     1     2    12  5.500000000000E-004      0 'Recharge' 
     1     2     8  5.500000000000E-004      0 'Recharge' 
     1     2     5  5.500000000000E-004      0 'Recharge' 
     1     1     8  5.500000000000E-004      0 'Recharge' 
END PERIOD 

BEGIN PERIOD      2
     1    19     7  5.500000000000E-004      0 'Recharge' 
     1    18    12  5.500000000000E-004      0 'Recharge' 
     1    18     4  5.500000000000E-004      0 'Recharge' 
     1    17    13  5.500000000000E-004      0 'Recharge' 
     1    16    13  5.500000000000E-004      0 'Recharge' 
     1    16     3  5.500000000000E-004      0 'Recharge' 
     1    14    14  5.500000000000E-004      0 'Recharge' 
     1    14     2  5.500000000000E-004      0 'Recharge' 
     1     7     2  5.500000000000E-004      0 'Recharge' 
     1     6    14  5.500000000000E-004      0 'Recharge' 
     1     5    13  5.500000000000E-004      0 'Recharge' 
     1     5     3  5.500000000000E-004      0 'Recharge' 
     1     4    12  5.500000000000E-004      0 'Recharge' 
     1     3     4  5.500000000000E-004      0 'Recharge' 
     1     2    12  5.500000000000E-004      0 'Recharge' 
     1     2     8  5.500000000000E-004      0 'Recharge' 
     1     2     5  5.500000000000E-004      0 'Recharge' 
     1     1     8  5.500000000000E-004      0 'Recharge' 
END PERIOD 

BEGIN PERIOD      3
     1    19     7  5.500000000000E-004      0 'Recharge' 
     1    18    12  5.500000000000E-004      0 'Recharge' 
     1    18     4  5.500000000000E-004      0 'Recharge' 
     1    17    13  5.500000000000E-004      0 'Recharge' 
     1    16    13  5.500000000000E-004      0 'Recharge' 
     1    16     3  5.500000000000E-004      0 'Recharge' 
     1    14    14  5.500000000000E-004      0 'Recharge' 
     1    14     2  5.500000000000E-004      0 'Recharge' 
     1     7     2  5.500000000000E-004      0 'Recharge' 
     1     6    14  5.500000000000E-004      0 'Recharge' 
     1     5    13  5.500000000000E-004      0 'Recharge' 
     1     5     3  5.500000000000E-004      0 'Recharge' 
     1     4    12  5.500000000000E-004      0 'Recharge' 
     1     3     4  5.500000000000E-004      0 'Recharge' 
     1     2    12  5.500000000000E-004      0 'Recharge' 
     1     2     8  5.500000000000E-004      0 'Recharge' 
     1     2     5  5.500000000000E-004      0 'Recharge' 
     1     1     8  5.500000000000E-004      0 'Recharge' 
END PERIOD 

