# Name File for MODFLOW created on 12/3/2021 by ModelMuse Version 4.3.0.74
BEGIN OPTIONS
  LIST CSubExample.lst
  NEWTON
  PRINT_INPUT
  SAVE_FLOWS
END OPTIONS

BEGIN PACKAGES
  DIS6         CSubExample.dis  DIS
  IC6          CSubExample.ic  IC
  NPF6         CSubExample.npf  NPF
  OBS6         CSubExample.ob_gw
  STO6         CSubExample.sto  STO
  OC6          CSubExample.oc  OC
  CHD6         CSubExample.chd  CHD-1
  WEL6         CSubExample.wel  WEL-1
  RCH6         CSubExample.rch  RCH-1
  CSUB6        CSubExample.csub  CSUB
END PACKAGES
