# Name File for MODFLOW created on 10/9/2019 by ModelMuse Version 4.0.0.20
LIST             11 DipKTest.lst REPLACE
DATA(BINARY)      9 DipKTest.cbc REPLACE
DIS              12 DipKTest.dis OLD
BAS6             13 DipKTest.bas OLD
OC               39 DipKTest.oc OLD
DATA(BINARY)     37 DipKTest.bhd REPLACE
PCGN            137 DipKTest.pcgn OLD
LPF              14 DipKTest.lpf OLD
ZONE             15 DipKTest.zon OLD
PVAL             52 DipKTest.pval OLD
