# Name File for MODFLOW created on 10/9/2019 by ModelMuse Version 4.0.0.20
LIST             11 ..\..\output\output.DipKTest\DipKTest.lst REPLACE
DATA(BINARY)      9 ..\..\output\output.DipKTest\DipKTest.cbc REPLACE
DIS              12 ..\..\model\model.DipKTest\DipKTest.dis OLD
BAS6             13 ..\..\model\model.DipKTest\DipKTest.bas OLD
OC               39 ..\..\model\model.DipKTest\DipKTest.oc OLD
DATA(BINARY)     37 ..\..\output\output.DipKTest\DipKTest.bhd REPLACE
PCGN            137 ..\..\model\model.DipKTest\DipKTest.pcgn OLD
LPF              14 ..\..\model\model.DipKTest\DipKTest.lpf OLD
ZONE             15 ..\..\model\model.DipKTest\DipKTest.zon OLD
PVAL             52 ..\..\model\model.DipKTest\DipKTest.pval OLD
