# Discretization File created on 9/14/2021 by ModelMuse version 4.3.0.65.
# Number of active cells = 300.
BEGIN OPTIONS
  LENGTH_UNITS METERS
END OPTIONS

BEGIN DIMENSIONS
  NLAY     3
  NCPL   100
  NVERT   121
END DIMENSIONS

BEGIN GRIDDATA
  TOP
    CONSTANT   0.000000000000E+000 
  BOTM LAYERED
    CONSTANT  -1.000000000000E+001 
    CONSTANT  -2.000000000000E+001 
    CONSTANT  -3.000000000000E+001 
  IDOMAIN LAYERED LAYERED IPRN     5
    CONSTANT      1 # IDOMAIN LAYERED 1
    CONSTANT      1 # IDOMAIN LAYERED 2
    CONSTANT      1 # IDOMAIN LAYERED 3
END GRIDDATA

BEGIN VERTICES
      1  0.000000000000E+000   0.000000000000E+000 
      2  1.000000000000E+002   0.000000000000E+000 
      3  2.000000000000E+002   0.000000000000E+000 
      4  3.000000000000E+002   0.000000000000E+000 
      5  4.000000000000E+002   0.000000000000E+000 
      6  5.000000000000E+002   0.000000000000E+000 
      7  6.000000000000E+002   0.000000000000E+000 
      8  7.000000000000E+002   0.000000000000E+000 
      9  8.000000000000E+002   0.000000000000E+000 
     10  9.000000000000E+002   0.000000000000E+000 
     11  1.000000000000E+003   0.000000000000E+000 
     12  0.000000000000E+000  -1.000000000000E+002 
     13  1.000000000000E+002  -1.000000000000E+002 
     14  2.000000000000E+002  -1.000000000000E+002 
     15  3.000000000000E+002  -1.000000000000E+002 
     16  4.000000000000E+002  -1.000000000000E+002 
     17  5.000000000000E+002  -1.000000000000E+002 
     18  6.000000000000E+002  -1.000000000000E+002 
     19  7.000000000000E+002  -1.000000000000E+002 
     20  8.000000000000E+002  -1.000000000000E+002 
     21  9.000000000000E+002  -1.000000000000E+002 
     22  1.000000000000E+003  -1.000000000000E+002 
     23  0.000000000000E+000  -2.000000000000E+002 
     24  1.000000000000E+002  -2.000000000000E+002 
     25  2.000000000000E+002  -2.000000000000E+002 
     26  3.000000000000E+002  -2.000000000000E+002 
     27  4.000000000000E+002  -2.000000000000E+002 
     28  5.000000000000E+002  -2.000000000000E+002 
     29  6.000000000000E+002  -2.000000000000E+002 
     30  7.000000000000E+002  -2.000000000000E+002 
     31  8.000000000000E+002  -2.000000000000E+002 
     32  9.000000000000E+002  -2.000000000000E+002 
     33  1.000000000000E+003  -2.000000000000E+002 
     34  0.000000000000E+000  -3.000000000000E+002 
     35  1.000000000000E+002  -3.000000000000E+002 
     36  2.000000000000E+002  -3.000000000000E+002 
     37  3.000000000000E+002  -3.000000000000E+002 
     38  4.000000000000E+002  -3.000000000000E+002 
     39  5.000000000000E+002  -3.000000000000E+002 
     40  6.000000000000E+002  -3.000000000000E+002 
     41  7.000000000000E+002  -3.000000000000E+002 
     42  8.000000000000E+002  -3.000000000000E+002 
     43  9.000000000000E+002  -3.000000000000E+002 
     44  1.000000000000E+003  -3.000000000000E+002 
     45  0.000000000000E+000  -4.000000000000E+002 
     46  1.000000000000E+002  -4.000000000000E+002 
     47  2.000000000000E+002  -4.000000000000E+002 
     48  3.000000000000E+002  -4.000000000000E+002 
     49  4.000000000000E+002  -4.000000000000E+002 
     50  5.000000000000E+002  -4.000000000000E+002 
     51  6.000000000000E+002  -4.000000000000E+002 
     52  7.000000000000E+002  -4.000000000000E+002 
     53  8.000000000000E+002  -4.000000000000E+002 
     54  9.000000000000E+002  -4.000000000000E+002 
     55  1.000000000000E+003  -4.000000000000E+002 
     56  0.000000000000E+000  -5.000000000000E+002 
     57  1.000000000000E+002  -5.000000000000E+002 
     58  2.000000000000E+002  -5.000000000000E+002 
     59  3.000000000000E+002  -5.000000000000E+002 
     60  4.000000000000E+002  -5.000000000000E+002 
     61  5.000000000000E+002  -5.000000000000E+002 
     62  6.000000000000E+002  -5.000000000000E+002 
     63  7.000000000000E+002  -5.000000000000E+002 
     64  8.000000000000E+002  -5.000000000000E+002 
     65  9.000000000000E+002  -5.000000000000E+002 
     66  1.000000000000E+003  -5.000000000000E+002 
     67  0.000000000000E+000  -6.000000000000E+002 
     68  1.000000000000E+002  -6.000000000000E+002 
     69  2.000000000000E+002  -6.000000000000E+002 
     70  3.000000000000E+002  -6.000000000000E+002 
     71  4.000000000000E+002  -6.000000000000E+002 
     72  5.000000000000E+002  -6.000000000000E+002 
     73  6.000000000000E+002  -6.000000000000E+002 
     74  7.000000000000E+002  -6.000000000000E+002 
     75  8.000000000000E+002  -6.000000000000E+002 
     76  9.000000000000E+002  -6.000000000000E+002 
     77  1.000000000000E+003  -6.000000000000E+002 
     78  0.000000000000E+000  -7.000000000000E+002 
     79  1.000000000000E+002  -7.000000000000E+002 
     80  2.000000000000E+002  -7.000000000000E+002 
     81  3.000000000000E+002  -7.000000000000E+002 
     82  4.000000000000E+002  -7.000000000000E+002 
     83  5.000000000000E+002  -7.000000000000E+002 
     84  6.000000000000E+002  -7.000000000000E+002 
     85  7.000000000000E+002  -7.000000000000E+002 
     86  8.000000000000E+002  -7.000000000000E+002 
     87  9.000000000000E+002  -7.000000000000E+002 
     88  1.000000000000E+003  -7.000000000000E+002 
     89  0.000000000000E+000  -8.000000000000E+002 
     90  1.000000000000E+002  -8.000000000000E+002 
     91  2.000000000000E+002  -8.000000000000E+002 
     92  3.000000000000E+002  -8.000000000000E+002 
     93  4.000000000000E+002  -8.000000000000E+002 
     94  5.000000000000E+002  -8.000000000000E+002 
     95  6.000000000000E+002  -8.000000000000E+002 
     96  7.000000000000E+002  -8.000000000000E+002 
     97  8.000000000000E+002  -8.000000000000E+002 
     98  9.000000000000E+002  -8.000000000000E+002 
     99  1.000000000000E+003  -8.000000000000E+002 
    100  0.000000000000E+000  -9.000000000000E+002 
    101  1.000000000000E+002  -9.000000000000E+002 
    102  2.000000000000E+002  -9.000000000000E+002 
    103  3.000000000000E+002  -9.000000000000E+002 
    104  4.000000000000E+002  -9.000000000000E+002 
    105  5.000000000000E+002  -9.000000000000E+002 
    106  6.000000000000E+002  -9.000000000000E+002 
    107  7.000000000000E+002  -9.000000000000E+002 
    108  8.000000000000E+002  -9.000000000000E+002 
    109  9.000000000000E+002  -9.000000000000E+002 
    110  1.000000000000E+003  -9.000000000000E+002 
    111  0.000000000000E+000  -1.000000000000E+003 
    112  1.000000000000E+002  -1.000000000000E+003 
    113  2.000000000000E+002  -1.000000000000E+003 
    114  3.000000000000E+002  -1.000000000000E+003 
    115  4.000000000000E+002  -1.000000000000E+003 
    116  5.000000000000E+002  -1.000000000000E+003 
    117  6.000000000000E+002  -1.000000000000E+003 
    118  7.000000000000E+002  -1.000000000000E+003 
    119  8.000000000000E+002  -1.000000000000E+003 
    120  9.000000000000E+002  -1.000000000000E+003 
    121  1.000000000000E+003  -1.000000000000E+003 
END VERTICES

BEGIN CELL2D
      1  5.000000000000E+001  -5.000000000000E+001      4     1     2    13    12
      2  1.500000000000E+002  -5.000000000000E+001      4     2     3    14    13
      3  2.500000000000E+002  -5.000000000000E+001      4     3     4    15    14
      4  3.500000000000E+002  -5.000000000000E+001      4     4     5    16    15
      5  4.500000000000E+002  -5.000000000000E+001      4     5     6    17    16
      6  5.500000000000E+002  -5.000000000000E+001      4     6     7    18    17
      7  6.500000000000E+002  -5.000000000000E+001      4     7     8    19    18
      8  7.500000000000E+002  -5.000000000000E+001      4     8     9    20    19
      9  8.500000000000E+002  -5.000000000000E+001      4     9    10    21    20
     10  9.500000000000E+002  -5.000000000000E+001      4    10    11    22    21
     11  5.000000000000E+001  -1.500000000000E+002      4    12    13    24    23
     12  1.500000000000E+002  -1.500000000000E+002      4    13    14    25    24
     13  2.500000000000E+002  -1.500000000000E+002      4    14    15    26    25
     14  3.500000000000E+002  -1.500000000000E+002      4    15    16    27    26
     15  4.500000000000E+002  -1.500000000000E+002      4    16    17    28    27
     16  5.500000000000E+002  -1.500000000000E+002      4    17    18    29    28
     17  6.500000000000E+002  -1.500000000000E+002      4    18    19    30    29
     18  7.500000000000E+002  -1.500000000000E+002      4    19    20    31    30
     19  8.500000000000E+002  -1.500000000000E+002      4    20    21    32    31
     20  9.500000000000E+002  -1.500000000000E+002      4    21    22    33    32
     21  5.000000000000E+001  -2.500000000000E+002      4    23    24    35    34
     22  1.500000000000E+002  -2.500000000000E+002      4    24    25    36    35
     23  2.500000000000E+002  -2.500000000000E+002      4    25    26    37    36
     24  3.500000000000E+002  -2.500000000000E+002      4    26    27    38    37
     25  4.500000000000E+002  -2.500000000000E+002      4    27    28    39    38
     26  5.500000000000E+002  -2.500000000000E+002      4    28    29    40    39
     27  6.500000000000E+002  -2.500000000000E+002      4    29    30    41    40
     28  7.500000000000E+002  -2.500000000000E+002      4    30    31    42    41
     29  8.500000000000E+002  -2.500000000000E+002      4    31    32    43    42
     30  9.500000000000E+002  -2.500000000000E+002      4    32    33    44    43
     31  5.000000000000E+001  -3.500000000000E+002      4    34    35    46    45
     32  1.500000000000E+002  -3.500000000000E+002      4    35    36    47    46
     33  2.500000000000E+002  -3.500000000000E+002      4    36    37    48    47
     34  3.500000000000E+002  -3.500000000000E+002      4    37    38    49    48
     35  4.500000000000E+002  -3.500000000000E+002      4    38    39    50    49
     36  5.500000000000E+002  -3.500000000000E+002      4    39    40    51    50
     37  6.500000000000E+002  -3.500000000000E+002      4    40    41    52    51
     38  7.500000000000E+002  -3.500000000000E+002      4    41    42    53    52
     39  8.500000000000E+002  -3.500000000000E+002      4    42    43    54    53
     40  9.500000000000E+002  -3.500000000000E+002      4    43    44    55    54
     41  5.000000000000E+001  -4.500000000000E+002      4    45    46    57    56
     42  1.500000000000E+002  -4.500000000000E+002      4    46    47    58    57
     43  2.500000000000E+002  -4.500000000000E+002      4    47    48    59    58
     44  3.500000000000E+002  -4.500000000000E+002      4    48    49    60    59
     45  4.500000000000E+002  -4.500000000000E+002      4    49    50    61    60
     46  5.500000000000E+002  -4.500000000000E+002      4    50    51    62    61
     47  6.500000000000E+002  -4.500000000000E+002      4    51    52    63    62
     48  7.500000000000E+002  -4.500000000000E+002      4    52    53    64    63
     49  8.500000000000E+002  -4.500000000000E+002      4    53    54    65    64
     50  9.500000000000E+002  -4.500000000000E+002      4    54    55    66    65
     51  5.000000000000E+001  -5.500000000000E+002      4    56    57    68    67
     52  1.500000000000E+002  -5.500000000000E+002      4    57    58    69    68
     53  2.500000000000E+002  -5.500000000000E+002      4    58    59    70    69
     54  3.500000000000E+002  -5.500000000000E+002      4    59    60    71    70
     55  4.500000000000E+002  -5.500000000000E+002      4    60    61    72    71
     56  5.500000000000E+002  -5.500000000000E+002      4    61    62    73    72
     57  6.500000000000E+002  -5.500000000000E+002      4    62    63    74    73
     58  7.500000000000E+002  -5.500000000000E+002      4    63    64    75    74
     59  8.500000000000E+002  -5.500000000000E+002      4    64    65    76    75
     60  9.500000000000E+002  -5.500000000000E+002      4    65    66    77    76
     61  5.000000000000E+001  -6.500000000000E+002      4    67    68    79    78
     62  1.500000000000E+002  -6.500000000000E+002      4    68    69    80    79
     63  2.500000000000E+002  -6.500000000000E+002      4    69    70    81    80
     64  3.500000000000E+002  -6.500000000000E+002      4    70    71    82    81
     65  4.500000000000E+002  -6.500000000000E+002      4    71    72    83    82
     66  5.500000000000E+002  -6.500000000000E+002      4    72    73    84    83
     67  6.500000000000E+002  -6.500000000000E+002      4    73    74    85    84
     68  7.500000000000E+002  -6.500000000000E+002      4    74    75    86    85
     69  8.500000000000E+002  -6.500000000000E+002      4    75    76    87    86
     70  9.500000000000E+002  -6.500000000000E+002      4    76    77    88    87
     71  5.000000000000E+001  -7.500000000000E+002      4    78    79    90    89
     72  1.500000000000E+002  -7.500000000000E+002      4    79    80    91    90
     73  2.500000000000E+002  -7.500000000000E+002      4    80    81    92    91
     74  3.500000000000E+002  -7.500000000000E+002      4    81    82    93    92
     75  4.500000000000E+002  -7.500000000000E+002      4    82    83    94    93
     76  5.500000000000E+002  -7.500000000000E+002      4    83    84    95    94
     77  6.500000000000E+002  -7.500000000000E+002      4    84    85    96    95
     78  7.500000000000E+002  -7.500000000000E+002      4    85    86    97    96
     79  8.500000000000E+002  -7.500000000000E+002      4    86    87    98    97
     80  9.500000000000E+002  -7.500000000000E+002      4    87    88    99    98
     81  5.000000000000E+001  -8.500000000000E+002      4    89    90   101   100
     82  1.500000000000E+002  -8.500000000000E+002      4    90    91   102   101
     83  2.500000000000E+002  -8.500000000000E+002      4    91    92   103   102
     84  3.500000000000E+002  -8.500000000000E+002      4    92    93   104   103
     85  4.500000000000E+002  -8.500000000000E+002      4    93    94   105   104
     86  5.500000000000E+002  -8.500000000000E+002      4    94    95   106   105
     87  6.500000000000E+002  -8.500000000000E+002      4    95    96   107   106
     88  7.500000000000E+002  -8.500000000000E+002      4    96    97   108   107
     89  8.500000000000E+002  -8.500000000000E+002      4    97    98   109   108
     90  9.500000000000E+002  -8.500000000000E+002      4    98    99   110   109
     91  5.000000000000E+001  -9.500000000000E+002      4   100   101   112   111
     92  1.500000000000E+002  -9.500000000000E+002      4   101   102   113   112
     93  2.500000000000E+002  -9.500000000000E+002      4   102   103   114   113
     94  3.500000000000E+002  -9.500000000000E+002      4   103   104   115   114
     95  4.500000000000E+002  -9.500000000000E+002      4   104   105   116   115
     96  5.500000000000E+002  -9.500000000000E+002      4   105   106   117   116
     97  6.500000000000E+002  -9.500000000000E+002      4   106   107   118   117
     98  7.500000000000E+002  -9.500000000000E+002      4   107   108   119   118
     99  8.500000000000E+002  -9.500000000000E+002      4   108   109   120   119
    100  9.500000000000E+002  -9.500000000000E+002      4   109   110   121   120
END CELL2D
