BEGIN TIMING
  TDIS6 'DisvIntersectAssignment.tdis'
END TIMING

BEGIN MODELS
  GWF6 'DisvIntersectAssignment.nam' 'MODFLOW'
END MODELS

BEGIN EXCHANGES
END EXCHANGES

BEGIN SOLUTIONGROUP     1
  MXITER     1
  IMS6 'DisvIntersectAssignment.ims' 'MODFLOW' 
END SOLUTIONGROUP

