# Name File for MODFLOW created on 12/3/2021 by ModelMuse Version 4.3.0.74
BEGIN OPTIONS
  LIST ..\..\output\output.DisvIntersectAssignment\DisvIntersectAssignment.lst
  PRINT_INPUT
  SAVE_FLOWS
END OPTIONS

BEGIN PACKAGES
  DISV6        ..\..\model\model.DisvIntersectAssignment\DisvIntersectAssignment.disv  DISV
  IC6          ..\..\model\model.DisvIntersectAssignment\DisvIntersectAssignment.ic  IC
  NPF6         ..\..\model\model.DisvIntersectAssignment\DisvIntersectAssignment.npf  NPF
  OC6          ..\..\model\model.DisvIntersectAssignment\DisvIntersectAssignment.oc  OC
END PACKAGES
