# Name File for MODFLOW created on 12/3/2021 by ModelMuse Version 4.3.0.74
BEGIN OPTIONS
  LIST DisvIntersectAssignment.lst
  PRINT_INPUT
  SAVE_FLOWS
END OPTIONS

BEGIN PACKAGES
  DISV6        DisvIntersectAssignment.disv  DISV
  IC6          DisvIntersectAssignment.ic  IC
  NPF6         DisvIntersectAssignment.npf  NPF
  OC6          DisvIntersectAssignment.oc  OC
END PACKAGES
