# Name File for MODFLOW created on 9/14/2021 by ModelMuse Version 4.3.0.65
BEGIN OPTIONS
  LIST ..\..\output\output.DisvIntersectAssignment\DisvIntersectAssignment.lst
  PRINT_INPUT
  SAVE_FLOWS
END OPTIONS

BEGIN PACKAGES
  DISV6        ..\..\model\model.DisvIntersectAssignment\DisvIntersectAssignment.disv
  IC6          ..\..\model\model.DisvIntersectAssignment\DisvIntersectAssignment.ic
  NPF6         ..\..\model\model.DisvIntersectAssignment\DisvIntersectAssignment.npf
  OC6          ..\..\model\model.DisvIntersectAssignment\DisvIntersectAssignment.oc
END PACKAGES
