# Name File for MODFLOW created on 2/1/2017 by ModelMuse Version 3.8.1.27
LIST             11 ..\..\output\output.DoubleWellTest\DoubleWellTest.lst REPLACE
DATA(BINARY)      9 ..\..\output\output.DoubleWellTest\DoubleWellTest.cbc REPLACE
DIS              12 ..\..\model\model.DoubleWellTest\DoubleWellTest.dis OLD
BAS6             13 ..\..\model\model.DoubleWellTest\DoubleWellTest.bas OLD
OC               39 ..\..\model\model.DoubleWellTest\DoubleWellTest.oc OLD
DATA             37 ..\..\output\output.DoubleWellTest\DoubleWellTest.fhd REPLACE
DATA             38 ..\..\output\output.DoubleWellTest\DoubleWellTest.fdn REPLACE
PCG              18 ..\..\model\model.DoubleWellTest\DoubleWellTest.pcg OLD
LPF              14 ..\..\model\model.DoubleWellTest\DoubleWellTest.lpf OLD
WEL              20 ..\..\model\model.DoubleWellTest\DoubleWellTest.wel OLD
