# Name File for MODFLOW created on 2/1/2017 by ModelMuse Version 3.8.1.27
LIST             11 ..\..\output\output.DrainElevDemo\DrainElevDemo.lst REPLACE
DATA(BINARY)      9 ..\..\output\output.DrainElevDemo\DrainElevDemo.cbc REPLACE
DIS              12 ..\..\model\model.DrainElevDemo\DrainElevDemo.dis OLD
BAS6             13 ..\..\model\model.DrainElevDemo\DrainElevDemo.bas OLD
OC               39 ..\..\model\model.DrainElevDemo\DrainElevDemo.oc OLD
DATA             37 ..\..\output\output.DrainElevDemo\DrainElevDemo.fhd REPLACE
DATA             38 ..\..\output\output.DrainElevDemo\DrainElevDemo.fdn REPLACE
PCG              18 ..\..\model\model.DrainElevDemo\DrainElevDemo.pcg OLD
LPF              14 ..\..\model\model.DrainElevDemo\DrainElevDemo.lpf OLD
DRN              22 ..\..\model\model.DrainElevDemo\DrainElevDemo.drn OLD
DROB             44 ..\..\model\model.DrainElevDemo\DrainElevDemo.ob_drob OLD
DATA             45 ..\..\output\output.DrainElevDemo\DrainElevDemo.drob_out REPLACE
