# Name File for MODFLOW created on 12/14/2015 by ModelMuse
LIST             11 DrainElevDemo.lst REPLACE
DATA(BINARY)      9 DrainElevDemo.cbc REPLACE
DIS              12 DrainElevDemo.dis OLD
BAS6             13 DrainElevDemo.bas OLD
OC               39 DrainElevDemo.oc OLD
DATA             37 DrainElevDemo.fhd REPLACE
DATA             38 DrainElevDemo.fdn REPLACE
PCG              18 DrainElevDemo.pcg OLD
LPF              14 DrainElevDemo.lpf OLD
DRN              22 DrainElevDemo.drn OLD
DROB             44 DrainElevDemo.ob_drob OLD
DATA             45 DrainElevDemo.drob_out REPLACE
