# Name File for MODFLOW created on 12/14/2015 by ModelMuse
LIST             11 Drntest.lst REPLACE
DIS              12 Drntest.dis OLD
BAS6             13 Drntest.bas OLD
OC               39 Drntest.oc OLD
DATA(BINARY)     38 Drntest.bdn REPLACE
PCG              18 Drntest.pcg OLD
LPF              14 Drntest.lpf OLD
CHD              17 Drntest.chd OLD
DRN              22 Drntest.drn OLD
