# Name File for MODFLOW created on 2/1/2017 by ModelMuse Version 3.8.1.27
LIST             11 ..\..\output\output.encloseBug2\encloseBug2.lst REPLACE
DATA(BINARY)      9 ..\..\output\output.encloseBug2\encloseBug2.cbc REPLACE
DIS              12 ..\..\model\model.encloseBug2\encloseBug2.dis OLD
BAS6             13 ..\..\model\model.encloseBug2\encloseBug2.bas OLD
OC               39 ..\..\model\model.encloseBug2\encloseBug2.oc OLD
DATA             37 ..\..\output\output.encloseBug2\encloseBug2.fhd REPLACE
DATA             38 ..\..\output\output.encloseBug2\encloseBug2.fdn REPLACE
PCG              18 ..\..\model\model.encloseBug2\encloseBug2.pcg OLD
LPF              14 ..\..\model\model.encloseBug2\encloseBug2.lpf OLD
