# Name File for MODFLOW created on 10/6/2016 by ModelMuse Version 3.8.1.7
LIST             11 encloseBug2.lst REPLACE
DATA(BINARY)      9 encloseBug2.cbc REPLACE
DIS              12 encloseBug2.dis OLD
BAS6             13 encloseBug2.bas OLD
OC               39 encloseBug2.oc OLD
DATA             37 encloseBug2.fhd REPLACE
DATA             38 encloseBug2.fdn REPLACE
PCG              18 encloseBug2.pcg OLD
LPF              14 encloseBug2.lpf OLD
