# Name File for MODFLOW created on 12/14/2015 by ModelMuse
LIST             11 EncloseBug3.lst REPLACE
DATA(BINARY)      9 EncloseBug3.cbc REPLACE
DIS              12 EncloseBug3.dis OLD
BAS6             13 EncloseBug3.bas OLD
OC               39 EncloseBug3.oc OLD
DATA             37 EncloseBug3.fhd REPLACE
DATA             38 EncloseBug3.fdn REPLACE
PCG              18 EncloseBug3.pcg OLD
LPF              14 EncloseBug3.lpf OLD
