# Name File for MODFLOW created on 2/1/2017 by ModelMuse Version 3.8.1.27
LIST             11 ..\..\output\output.EncloseBug3\EncloseBug3.lst REPLACE
DATA(BINARY)      9 ..\..\output\output.EncloseBug3\EncloseBug3.cbc REPLACE
DIS              12 ..\..\model\model.EncloseBug3\EncloseBug3.dis OLD
BAS6             13 ..\..\model\model.EncloseBug3\EncloseBug3.bas OLD
OC               39 ..\..\model\model.EncloseBug3\EncloseBug3.oc OLD
DATA             37 ..\..\output\output.EncloseBug3\EncloseBug3.fhd REPLACE
DATA             38 ..\..\output\output.EncloseBug3\EncloseBug3.fdn REPLACE
PCG              18 ..\..\model\model.EncloseBug3\EncloseBug3.pcg OLD
LPF              14 ..\..\model\model.EncloseBug3\EncloseBug3.lpf OLD
