# Name File for MODFLOW created on 2/1/2017 by ModelMuse Version 3.8.1.27
LIST             11 ..\..\output\output.encloseBug\encloseBug.lst REPLACE
DATA(BINARY)      9 ..\..\output\output.encloseBug\encloseBug.cbc REPLACE
DIS              12 ..\..\model\model.encloseBug\encloseBug.dis OLD
BAS6             13 ..\..\model\model.encloseBug\encloseBug.bas OLD
OC               39 ..\..\model\model.encloseBug\encloseBug.oc OLD
DATA             37 ..\..\output\output.encloseBug\encloseBug.fhd REPLACE
DATA             38 ..\..\output\output.encloseBug\encloseBug.fdn REPLACE
PCG              18 ..\..\model\model.encloseBug\encloseBug.pcg OLD
LPF              14 ..\..\model\model.encloseBug\encloseBug.lpf OLD
