# Name File for MODFLOW created on 12/14/2015 by ModelMuse
LIST             11 EvtTest.lst REPLACE
DATA(BINARY)      9 EvtTest.cbc REPLACE
DIS              12 EvtTest.dis OLD
BAS6             13 EvtTest.bas OLD
OC               39 EvtTest.oc OLD
DATA             37 EvtTest.fhd REPLACE
DATA             38 EvtTest.fdn REPLACE
PCG              18 EvtTest.pcg OLD
LPF              14 EvtTest.lpf OLD
EVT              25 EvtTest.evt OLD
