# Name File for MODFLOW created on 12/14/2015 by ModelMuse
LIST             11 ExampleModel.lst REPLACE
DATA(BINARY)      9 ExampleModel.cbc REPLACE
DIS              12 ExampleModel.dis OLD
BAS6             13 ExampleModel.bas OLD
OC               39 ExampleModel.oc OLD
DATA             37 ExampleModel.fhd REPLACE
DATA             38 ExampleModel.fdn REPLACE
PCG              18 ExampleModel.pcg OLD
LPF              14 ExampleModel.lpf OLD
CHD              17 ExampleModel.chd OLD
ZONE             15 ExampleModel.zon OLD
MULT             16 ExampleModel.mlt OLD
PVAL             52 ExampleModel.pval OLD
