BEGIN TIMING
  TDIS6 'ExitEdgeTest.tdis'
END TIMING

BEGIN MODELS
  GWF6 'ExitEdgeTest.nam' 'MODFLOW'
END MODELS

BEGIN EXCHANGES
END EXCHANGES

BEGIN SOLUTIONGROUP     1
  MXITER     1
  IMS6 'ExitEdgeTest.ims' 'MODFLOW' 
END SOLUTIONGROUP

