# TDIS file created on 12/18/2019 by ModelMuse version 4.1.0.15.

BEGIN OPTIONS
  TIME_UNITS seconds
END OPTIONS

BEGIN DIMENSIONS
  NPER     1
END DIMENSIONS

BEGIN PERIODDATA
    1.000000000000E+000      1  1.000000000000E+000  # perlen nstp tsmult, Stress period      1
END PERIODDATA
