# Output Control file created on 12/18/2019 by ModelMuse version 4.1.0.15.
BEGIN OPTIONS
  BUDGET FILEOUT 'ExitEdgeTest.cbc'
  HEAD FILEOUT 'ExitEdgeTest.bhd'
END OPTIONS

BEGIN PERIOD      1
  SAVE HEAD ALL
  PRINT BUDGET ALL
  SAVE BUDGET ALL
END PERIOD 

