# Name File for MODFLOW created on 12/3/2021 by ModelMuse Version 4.3.0.74
BEGIN OPTIONS
  LIST ExitEdgeTest.lst
  PRINT_INPUT
  SAVE_FLOWS
END OPTIONS

BEGIN PACKAGES
  DIS6         ExitEdgeTest.dis  DIS
  IC6          ExitEdgeTest.ic  IC
  NPF6         ExitEdgeTest.npf  NPF
  OC6          ExitEdgeTest.oc  OC
END PACKAGES
