# Name File for MODFLOW created on 12/3/2021 by ModelMuse Version 4.3.0.74
BEGIN OPTIONS
  LIST ..\..\output\output.ExitEdgeTest\ExitEdgeTest.lst
  PRINT_INPUT
  SAVE_FLOWS
END OPTIONS

BEGIN PACKAGES
  DIS6         ..\..\model\model.ExitEdgeTest\ExitEdgeTest.dis  DIS
  IC6          ..\..\model\model.ExitEdgeTest\ExitEdgeTest.ic  IC
  NPF6         ..\..\model\model.ExitEdgeTest\ExitEdgeTest.npf  NPF
  OC6          ..\..\model\model.ExitEdgeTest\ExitEdgeTest.oc  OC
END PACKAGES
