# Name File for MODFLOW created on 12/18/2019 by ModelMuse Version 4.1.0.15
BEGIN OPTIONS
  LIST ExitEdgeTest.lst
  PRINT_INPUT
  SAVE_FLOWS
END OPTIONS

BEGIN PACKAGES
  DIS6         ExitEdgeTest.dis
  IC6          ExitEdgeTest.ic
  NPF6         ExitEdgeTest.npf
  OC6          ExitEdgeTest.oc
END PACKAGES
