# Name File for MODFLOW created on 8/6/2016 by ModelMuse
LIST             11 FarmTestDataSet18.lst REPLACE
DATA(BINARY)      9 FarmTestDataSet18.cbc REPLACE
DIS              12 FarmTestDataSet18.dis OLD
BAS6             13 FarmTestDataSet18.bas OLD
OC               39 FarmTestDataSet18.oc OLD
DATA             37 FarmTestDataSet18.fhd REPLACE
DATA             38 FarmTestDataSet18.fdn REPLACE
DATA            189 FarmTestDataSet18.wbgt REPLACE
NWT             133 FarmTestDataSet18.nwt OLD
UPW             134 FarmTestDataSet18.upw OLD
GHB              19 FarmTestDataSet18.ghb OLD
MNW1            182 FarmTestDataSet18.mnw1 OLD
DATA            183 OWHM_EX1.t.wl1 REPLACE
DATA            184 OWHM_EX1.t.ByNode REPLACE
DATA            185 OWHM_EX1.t.Qsum REPLACE
SWR             171 FarmTestDataSet18.swr OLD
DATA(BINARY)    172 FarmTestDataSet18.Swr_ReachGroupFlows_B REPLACE
DATA(BINARY)    173 FarmTestDataSet18.Swr_ReachStage_B REPLACE
DATA(BINARY)    174 FarmTestDataSet18.Swr_ReachExchange_B REPLACE
DATA            176 FarmTestDataSet18.Swr_StructureFlow_A REPLACE
DATA            177 FarmTestDataSet18.Swr_TimeStepLength_A REPLACE
DATA            179 FarmTestDataSet18.Swr_Obs_A REPLACE
SFR              29 FarmTestDataSet18.sfr OLD
UZF              31 FarmTestDataSet18.uzf OLD
DATA          20206 FarmTestDataSet181.uzfg REPLACE
DATA          20207 FarmTestDataSet182.uzfg REPLACE
DATA          20208 FarmTestDataSet183.uzfg REPLACE
DATA          20209 FarmTestDataSet184.uzfg REPLACE
DATA          20210 FarmTestDataSet185.uzfg REPLACE
FMP             147 FarmTestDataSet18.fmp OLD
DATA(BINARY)    148 FarmTestDataSet18.FDS_BIN REPLACE
DATA            186 FarmTestDataSet18.FID OLD
DATA            151 FarmTestDataSet18.OFE OLD
DATA            152 FarmTestDataSet18.CID OLD
DATA            153 FarmTestDataSet18.ROOT OLD
DATA            154 FarmTestDataSet18.CropUse OLD
DATA            155 FarmTestDataSet18.ETR OLD
DATA            156 FarmTestDataSet18.ET_Frac OLD
DATA            157 FarmTestDataSet18.SW_Losses OLD
DATA            158 FarmTestDataSet18.PFLX OLD
DATA            161 FarmTestDataSet18.NonRouteDeliv OLD
DATA            162 FarmTestDataSet18.SemiRouteDeliv OLD
DATA            163 FarmTestDataSet18.SemiRouteReturn OLD
PVAL             52 FarmTestDataSet18.pval OLD
