# Name File for MODFLOW created on 8/6/2016 by ModelMuse
LIST             11 FarmTestDataSet25.lst REPLACE
DATA(BINARY)      9 FarmTestDataSet25.cbc REPLACE
DIS              12 FarmTestDataSet25.dis OLD
BAS6             13 FarmTestDataSet25.bas OLD
OC               39 FarmTestDataSet25.oc OLD
DATA             37 FarmTestDataSet25.fhd REPLACE
DATA             38 FarmTestDataSet25.fdn REPLACE
DATA            189 FarmTestDataSet25.wbgt REPLACE
NWT             133 FarmTestDataSet25.nwt OLD
UPW             134 FarmTestDataSet25.upw OLD
GHB              19 FarmTestDataSet25.ghb OLD
MNW1            182 FarmTestDataSet25.mnw1 OLD
DATA            183 OWHM_EX1.t.wl1 REPLACE
DATA            184 OWHM_EX1.t.ByNode REPLACE
DATA            185 OWHM_EX1.t.Qsum REPLACE
SWR             171 FarmTestDataSet25.swr OLD
DATA(BINARY)    172 FarmTestDataSet25.Swr_ReachGroupFlows_B REPLACE
DATA(BINARY)    173 FarmTestDataSet25.Swr_ReachStage_B REPLACE
DATA(BINARY)    174 FarmTestDataSet25.Swr_ReachExchange_B REPLACE
DATA            176 FarmTestDataSet25.Swr_StructureFlow_A REPLACE
DATA            177 FarmTestDataSet25.Swr_TimeStepLength_A REPLACE
DATA            179 FarmTestDataSet25.Swr_Obs_A REPLACE
SFR              29 FarmTestDataSet25.sfr OLD
UZF              31 FarmTestDataSet25.uzf OLD
DATA          20206 FarmTestDataSet251.uzfg REPLACE
DATA          20207 FarmTestDataSet252.uzfg REPLACE
DATA          20208 FarmTestDataSet253.uzfg REPLACE
DATA          20209 FarmTestDataSet254.uzfg REPLACE
DATA          20210 FarmTestDataSet255.uzfg REPLACE
FMP             147 FarmTestDataSet25.fmp OLD
DATA(BINARY)    148 FarmTestDataSet25.FDS_BIN REPLACE
DATA            186 FarmTestDataSet25.FID OLD
DATA            151 FarmTestDataSet25.OFE OLD
DATA            152 FarmTestDataSet25.CID OLD
DATA            153 FarmTestDataSet25.ROOT OLD
DATA            154 FarmTestDataSet25.CropUse OLD
DATA            155 FarmTestDataSet25.ETR OLD
DATA            156 FarmTestDataSet25.ET_Frac OLD
DATA            157 FarmTestDataSet25.SW_Losses OLD
DATA            158 FarmTestDataSet25.PFLX OLD
DATA            161 FarmTestDataSet25.NonRouteDeliv OLD
DATA            162 FarmTestDataSet25.SemiRouteDeliv OLD
DATA            163 FarmTestDataSet25.SemiRouteReturn OLD
PVAL             52 FarmTestDataSet25.pval OLD
