# Name File for MODFLOW created on 8/6/2016 by ModelMuse
LIST             11 FarmTestDataSet35.lst REPLACE
DATA(BINARY)      9 FarmTestDataSet35.cbc REPLACE
DIS              12 FarmTestDataSet35.dis OLD
BAS6             13 FarmTestDataSet35.bas OLD
OC               39 FarmTestDataSet35.oc OLD
DATA             37 FarmTestDataSet35.fhd REPLACE
DATA             38 FarmTestDataSet35.fdn REPLACE
DATA            189 FarmTestDataSet35.wbgt REPLACE
NWT             133 FarmTestDataSet35.nwt OLD
UPW             134 FarmTestDataSet35.upw OLD
GHB              19 FarmTestDataSet35.ghb OLD
MNW1            182 FarmTestDataSet35.mnw1 OLD
DATA            183 OWHM_EX1.t.wl1 REPLACE
DATA            184 OWHM_EX1.t.ByNode REPLACE
DATA            185 OWHM_EX1.t.Qsum REPLACE
SWR             171 FarmTestDataSet35.swr OLD
DATA(BINARY)    172 FarmTestDataSet35.Swr_ReachGroupFlows_B REPLACE
DATA(BINARY)    173 FarmTestDataSet35.Swr_ReachStage_B REPLACE
DATA(BINARY)    174 FarmTestDataSet35.Swr_ReachExchange_B REPLACE
DATA            176 FarmTestDataSet35.Swr_StructureFlow_A REPLACE
DATA            177 FarmTestDataSet35.Swr_TimeStepLength_A REPLACE
DATA            179 FarmTestDataSet35.Swr_Obs_A REPLACE
SFR              29 FarmTestDataSet35.sfr OLD
UZF              31 FarmTestDataSet35.uzf OLD
DATA          20206 FarmTestDataSet351.uzfg REPLACE
DATA          20207 FarmTestDataSet352.uzfg REPLACE
DATA          20208 FarmTestDataSet353.uzfg REPLACE
DATA          20209 FarmTestDataSet354.uzfg REPLACE
DATA          20210 FarmTestDataSet355.uzfg REPLACE
FMP             147 FarmTestDataSet35.fmp OLD
DATA(BINARY)    148 FarmTestDataSet35.FDS_BIN REPLACE
DATA            186 FarmTestDataSet35.FID OLD
DATA            151 FarmTestDataSet35.OFE OLD
DATA            152 FarmTestDataSet35.CID OLD
DATA            153 FarmTestDataSet35.ROOT OLD
DATA            154 FarmTestDataSet35.CropUse OLD
DATA            155 FarmTestDataSet35.ETR OLD
DATA            156 FarmTestDataSet35.ET_Frac OLD
DATA            157 FarmTestDataSet35.SW_Losses OLD
DATA            158 FarmTestDataSet35.PFLX OLD
DATA            159 FarmTestDataSet35.CropFunc OLD
DATA            160 FarmTestDataSet35.WaterCost OLD
DATA            161 FarmTestDataSet35.NonRouteDeliv OLD
DATA            162 FarmTestDataSet35.SemiRouteDeliv OLD
DATA            163 FarmTestDataSet35.SemiRouteReturn OLD
PVAL             52 FarmTestDataSet35.pval OLD
