# Name File for MODFLOW created on 2/1/2017 by ModelMuse Version 3.8.1.27
LIST             11 ..\..\output\output.FarmMnw2Test\FarmMnw2Test.lst REPLACE
DATA(BINARY)      9 ..\..\output\output.FarmMnw2Test\FarmMnw2Test.cbc REPLACE
DIS              12 ..\..\model\model.FarmMnw2Test\FarmMnw2Test.dis OLD
BAS6             13 ..\..\model\model.FarmMnw2Test\FarmMnw2Test.bas OLD
OC               39 ..\..\model\model.FarmMnw2Test\FarmMnw2Test.oc OLD
DATA             37 ..\..\output\output.FarmMnw2Test\FarmMnw2Test.fhd REPLACE
DATA             38 ..\..\output\output.FarmMnw2Test\FarmMnw2Test.fdn REPLACE
DATA            189 ..\..\output\output.FarmMnw2Test\FarmMnw2Test.wbgt REPLACE
PCG              18 ..\..\model\model.FarmMnw2Test\FarmMnw2Test.pcg OLD
LPF              14 ..\..\model\model.FarmMnw2Test\FarmMnw2Test.lpf OLD
GHB              19 ..\..\model\model.FarmMnw2Test\FarmMnw2Test.ghb OLD
MNW2             59 ..\..\model\model.FarmMnw2Test\FarmMnw2Test.mnw2 OLD
MNWI             60 ..\..\model\model.FarmMnw2Test\FarmMnw2Test.mnwi OLD
DATA             61 ..\..\output\output.FarmMnw2Test\FarmMnw2Test.wel_out REPLACE
DATA             62 ..\..\output\output.FarmMnw2Test\FarmMnw2Test.QSUM_out REPLACE
DATA             63 ..\..\output\output.FarmMnw2Test\FarmMnw2Test.BYND_out REPLACE
SWR             171 ..\..\model\model.FarmMnw2Test\FarmMnw2Test.swr OLD
DATA(BINARY)    172 ..\..\output\output.FarmMnw2Test\FarmMnw2Test.Swr_ReachGroupFlows_B REPLACE
DATA(BINARY)    173 ..\..\output\output.FarmMnw2Test\FarmMnw2Test.Swr_ReachStage_B REPLACE
DATA(BINARY)    174 ..\..\output\output.FarmMnw2Test\FarmMnw2Test.Swr_ReachExchange_B REPLACE
DATA            176 ..\..\output\output.FarmMnw2Test\FarmMnw2Test.Swr_StructureFlow_A REPLACE
DATA            177 ..\..\output\output.FarmMnw2Test\FarmMnw2Test.Swr_TimeStepLength_A REPLACE
DATA            179 ..\..\output\output.FarmMnw2Test\FarmMnw2Test.Swr_Obs_A REPLACE
SFR              29 ..\..\model\model.FarmMnw2Test\FarmMnw2Test.sfr OLD
UZF              31 ..\..\model\model.FarmMnw2Test\FarmMnw2Test.uzf OLD
DATA          20206 ..\..\output\output.FarmMnw2Test\FarmMnw2Test1.uzfg REPLACE
DATA          20207 ..\..\output\output.FarmMnw2Test\FarmMnw2Test2.uzfg REPLACE
DATA          20208 ..\..\output\output.FarmMnw2Test\FarmMnw2Test3.uzfg REPLACE
DATA          20209 ..\..\output\output.FarmMnw2Test\FarmMnw2Test4.uzfg REPLACE
DATA          20210 ..\..\output\output.FarmMnw2Test\FarmMnw2Test5.uzfg REPLACE
FMP             147 ..\..\model\model.FarmMnw2Test\FarmMnw2Test.fmp OLD
DATA(BINARY)    148 ..\..\output\output.FarmMnw2Test\FarmMnw2Test.FDS_BIN REPLACE
DATA            186 ..\..\model\model.FarmMnw2Test\FarmMnw2Test.FID OLD
DATA            151 ..\..\model\model.FarmMnw2Test\FarmMnw2Test.OFE OLD
DATA            152 ..\..\model\model.FarmMnw2Test\FarmMnw2Test.CID OLD
DATA            153 ..\..\model\model.FarmMnw2Test\FarmMnw2Test.ROOT OLD
DATA            154 ..\..\model\model.FarmMnw2Test\FarmMnw2Test.CropUse OLD
DATA            155 ..\..\model\model.FarmMnw2Test\FarmMnw2Test.ETR OLD
DATA            156 ..\..\model\model.FarmMnw2Test\FarmMnw2Test.ET_Frac OLD
DATA            157 ..\..\model\model.FarmMnw2Test\FarmMnw2Test.SW_Losses OLD
DATA            158 ..\..\model\model.FarmMnw2Test\FarmMnw2Test.PFLX OLD
DATA            161 ..\..\model\model.FarmMnw2Test\FarmMnw2Test.NonRouteDeliv OLD
DATA            162 ..\..\model\model.FarmMnw2Test\FarmMnw2Test.SemiRouteDeliv OLD
DATA            163 ..\..\model\model.FarmMnw2Test\FarmMnw2Test.SemiRouteReturn OLD
PVAL             52 ..\..\model\model.FarmMnw2Test\FarmMnw2Test.pval OLD
