# Name File for MODFLOW created on 8/6/2016 by ModelMuse
LIST             11 FarmTestDataSet7.lst REPLACE
DATA(BINARY)      9 FarmTestDataSet7.cbc REPLACE
DIS              12 FarmTestDataSet7.dis OLD
BAS6             13 FarmTestDataSet7.bas OLD
OC               39 FarmTestDataSet7.oc OLD
DATA             37 FarmTestDataSet7.fhd REPLACE
DATA             38 FarmTestDataSet7.fdn REPLACE
DATA            189 FarmTestDataSet7.wbgt REPLACE
NWT             133 FarmTestDataSet7.nwt OLD
UPW             134 FarmTestDataSet7.upw OLD
GHB              19 FarmTestDataSet7.ghb OLD
MNW1            182 FarmTestDataSet7.mnw1 OLD
DATA            183 OWHM_EX1.t.wl1 REPLACE
DATA            184 OWHM_EX1.t.ByNode REPLACE
DATA            185 OWHM_EX1.t.Qsum REPLACE
SWR             171 FarmTestDataSet7.swr OLD
DATA(BINARY)    172 FarmTestDataSet7.Swr_ReachGroupFlows_B REPLACE
DATA(BINARY)    173 FarmTestDataSet7.Swr_ReachStage_B REPLACE
DATA(BINARY)    174 FarmTestDataSet7.Swr_ReachExchange_B REPLACE
DATA            176 FarmTestDataSet7.Swr_StructureFlow_A REPLACE
DATA            177 FarmTestDataSet7.Swr_TimeStepLength_A REPLACE
DATA            179 FarmTestDataSet7.Swr_Obs_A REPLACE
SFR              29 FarmTestDataSet7.sfr OLD
UZF              31 FarmTestDataSet7.uzf OLD
DATA          20206 FarmTestDataSet71.uzfg REPLACE
DATA          20207 FarmTestDataSet72.uzfg REPLACE
DATA          20208 FarmTestDataSet73.uzfg REPLACE
DATA          20209 FarmTestDataSet74.uzfg REPLACE
DATA          20210 FarmTestDataSet75.uzfg REPLACE
FMP             147 FarmTestDataSet7.fmp OLD
DATA(BINARY)    148 FarmTestDataSet7.FDS_BIN REPLACE
DATA            186 FarmTestDataSet7.FID OLD
DATA            152 FarmTestDataSet7.CID OLD
DATA            154 FarmTestDataSet7.CropUse OLD
DATA            155 FarmTestDataSet7.ETR OLD
DATA            158 FarmTestDataSet7.PFLX OLD
DATA            161 FarmTestDataSet7.NonRouteDeliv OLD
DATA            162 FarmTestDataSet7.SemiRouteDeliv OLD
DATA            163 FarmTestDataSet7.SemiRouteReturn OLD
PVAL             52 FarmTestDataSet7.pval OLD
