# Name File for MODFLOW created on 8/6/2016 by ModelMuse
LIST             11 FarmTestDataSet17.lst REPLACE
DATA(BINARY)      9 FarmTestDataSet17.cbc REPLACE
DIS              12 FarmTestDataSet17.dis OLD
BAS6             13 FarmTestDataSet17.bas OLD
OC               39 FarmTestDataSet17.oc OLD
DATA             37 FarmTestDataSet17.fhd REPLACE
DATA             38 FarmTestDataSet17.fdn REPLACE
DATA            189 FarmTestDataSet17.wbgt REPLACE
NWT             133 FarmTestDataSet17.nwt OLD
UPW             134 FarmTestDataSet17.upw OLD
GHB              19 FarmTestDataSet17.ghb OLD
MNW1            182 FarmTestDataSet17.mnw1 OLD
DATA            183 OWHM_EX1.t.wl1 REPLACE
DATA            184 OWHM_EX1.t.ByNode REPLACE
DATA            185 OWHM_EX1.t.Qsum REPLACE
SWR             171 FarmTestDataSet17.swr OLD
DATA(BINARY)    172 FarmTestDataSet17.Swr_ReachGroupFlows_B REPLACE
DATA(BINARY)    173 FarmTestDataSet17.Swr_ReachStage_B REPLACE
DATA(BINARY)    174 FarmTestDataSet17.Swr_ReachExchange_B REPLACE
DATA            176 FarmTestDataSet17.Swr_StructureFlow_A REPLACE
DATA            177 FarmTestDataSet17.Swr_TimeStepLength_A REPLACE
DATA            179 FarmTestDataSet17.Swr_Obs_A REPLACE
SFR              29 FarmTestDataSet17.sfr OLD
UZF              31 FarmTestDataSet17.uzf OLD
DATA          20206 FarmTestDataSet171.uzfg REPLACE
DATA          20207 FarmTestDataSet172.uzfg REPLACE
DATA          20208 FarmTestDataSet173.uzfg REPLACE
DATA          20209 FarmTestDataSet174.uzfg REPLACE
DATA          20210 FarmTestDataSet175.uzfg REPLACE
FMP             147 FarmTestDataSet17.fmp OLD
DATA(BINARY)    148 FarmTestDataSet17.FDS_BIN REPLACE
DATA            186 FarmTestDataSet17.FID OLD
DATA            151 FarmTestDataSet17.OFE OLD
DATA            152 FarmTestDataSet17.CID OLD
DATA            153 FarmTestDataSet17.ROOT OLD
DATA            154 FarmTestDataSet17.CropUse OLD
DATA            155 FarmTestDataSet17.ETR OLD
DATA            156 FarmTestDataSet17.ET_Frac OLD
DATA            157 FarmTestDataSet17.SW_Losses OLD
DATA            158 FarmTestDataSet17.PFLX OLD
DATA            161 FarmTestDataSet17.NonRouteDeliv OLD
DATA            162 FarmTestDataSet17.SemiRouteDeliv OLD
DATA            163 FarmTestDataSet17.SemiRouteReturn OLD
PVAL             52 FarmTestDataSet17.pval OLD
