# Name File for MODFLOW created on 2/1/2017 by ModelMuse Version 3.8.1.27
LIST             11 ..\..\output\output.FarmTestDataSet35\FarmTestDataSet35.lst REPLACE
DATA(BINARY)      9 ..\..\output\output.FarmTestDataSet35\FarmTestDataSet35.cbc REPLACE
DIS              12 ..\..\model\model.FarmTestDataSet35\FarmTestDataSet35.dis OLD
BAS6             13 ..\..\model\model.FarmTestDataSet35\FarmTestDataSet35.bas OLD
OC               39 ..\..\model\model.FarmTestDataSet35\FarmTestDataSet35.oc OLD
DATA             37 ..\..\output\output.FarmTestDataSet35\FarmTestDataSet35.fhd REPLACE
DATA             38 ..\..\output\output.FarmTestDataSet35\FarmTestDataSet35.fdn REPLACE
DATA            189 ..\..\output\output.FarmTestDataSet35\FarmTestDataSet35.wbgt REPLACE
NWT             133 ..\..\model\model.FarmTestDataSet35\FarmTestDataSet35.nwt OLD
UPW             134 ..\..\model\model.FarmTestDataSet35\FarmTestDataSet35.upw OLD
GHB              19 ..\..\model\model.FarmTestDataSet35\FarmTestDataSet35.ghb OLD
MNW1            182 ..\..\model\model.FarmTestDataSet35\FarmTestDataSet35.mnw1 OLD
DATA            183 ..\..\output\output.FarmTestDataSet35\OWHM_EX1.t.wl1 REPLACE
DATA            184 ..\..\output\output.FarmTestDataSet35\OWHM_EX1.t.ByNode REPLACE
DATA            185 ..\..\output\output.FarmTestDataSet35\OWHM_EX1.t.Qsum REPLACE
SWR             171 ..\..\model\model.FarmTestDataSet35\FarmTestDataSet35.swr OLD
DATA(BINARY)    172 ..\..\output\output.FarmTestDataSet35\FarmTestDataSet35.Swr_ReachGroupFlows_B REPLACE
DATA(BINARY)    173 ..\..\output\output.FarmTestDataSet35\FarmTestDataSet35.Swr_ReachStage_B REPLACE
DATA(BINARY)    174 ..\..\output\output.FarmTestDataSet35\FarmTestDataSet35.Swr_ReachExchange_B REPLACE
DATA            176 ..\..\output\output.FarmTestDataSet35\FarmTestDataSet35.Swr_StructureFlow_A REPLACE
DATA            177 ..\..\output\output.FarmTestDataSet35\FarmTestDataSet35.Swr_TimeStepLength_A REPLACE
DATA            179 ..\..\output\output.FarmTestDataSet35\FarmTestDataSet35.Swr_Obs_A REPLACE
SFR              29 ..\..\model\model.FarmTestDataSet35\FarmTestDataSet35.sfr OLD
UZF              31 ..\..\model\model.FarmTestDataSet35\FarmTestDataSet35.uzf OLD
DATA          20206 ..\..\output\output.FarmTestDataSet35\FarmTestDataSet351.uzfg REPLACE
DATA          20207 ..\..\output\output.FarmTestDataSet35\FarmTestDataSet352.uzfg REPLACE
DATA          20208 ..\..\output\output.FarmTestDataSet35\FarmTestDataSet353.uzfg REPLACE
DATA          20209 ..\..\output\output.FarmTestDataSet35\FarmTestDataSet354.uzfg REPLACE
DATA          20210 ..\..\output\output.FarmTestDataSet35\FarmTestDataSet355.uzfg REPLACE
FMP             147 ..\..\model\model.FarmTestDataSet35\FarmTestDataSet35.fmp OLD
DATA(BINARY)    148 ..\..\output\output.FarmTestDataSet35\FarmTestDataSet35.FDS_BIN REPLACE
DATA            186 ..\..\model\model.FarmTestDataSet35\FarmTestDataSet35.FID OLD
DATA            151 ..\..\model\model.FarmTestDataSet35\FarmTestDataSet35.OFE OLD
DATA            152 ..\..\model\model.FarmTestDataSet35\FarmTestDataSet35.CID OLD
DATA            153 ..\..\model\model.FarmTestDataSet35\FarmTestDataSet35.ROOT OLD
DATA            154 ..\..\model\model.FarmTestDataSet35\FarmTestDataSet35.CropUse OLD
DATA            155 ..\..\model\model.FarmTestDataSet35\FarmTestDataSet35.ETR OLD
DATA            156 ..\..\model\model.FarmTestDataSet35\FarmTestDataSet35.ET_Frac OLD
DATA            157 ..\..\model\model.FarmTestDataSet35\FarmTestDataSet35.SW_Losses OLD
DATA            158 ..\..\model\model.FarmTestDataSet35\FarmTestDataSet35.PFLX OLD
DATA            159 ..\..\model\model.FarmTestDataSet35\FarmTestDataSet35.CropFunc OLD
DATA            160 ..\..\model\model.FarmTestDataSet35\FarmTestDataSet35.WaterCost OLD
DATA            161 ..\..\model\model.FarmTestDataSet35\FarmTestDataSet35.NonRouteDeliv OLD
DATA            162 ..\..\model\model.FarmTestDataSet35\FarmTestDataSet35.SemiRouteDeliv OLD
DATA            163 ..\..\model\model.FarmTestDataSet35\FarmTestDataSet35.SemiRouteReturn OLD
PVAL             52 ..\..\model\model.FarmTestDataSet35\FarmTestDataSet35.pval OLD
