# Name File for MODFLOW created on 8/6/2016 by ModelMuse
LIST             11 FarmTestDataSet15.lst REPLACE
DATA(BINARY)      9 FarmTestDataSet15.cbc REPLACE
DIS              12 FarmTestDataSet15.dis OLD
BAS6             13 FarmTestDataSet15.bas OLD
OC               39 FarmTestDataSet15.oc OLD
DATA             37 FarmTestDataSet15.fhd REPLACE
DATA             38 FarmTestDataSet15.fdn REPLACE
DATA            189 FarmTestDataSet15.wbgt REPLACE
NWT             133 FarmTestDataSet15.nwt OLD
UPW             134 FarmTestDataSet15.upw OLD
GHB              19 FarmTestDataSet15.ghb OLD
MNW1            182 FarmTestDataSet15.mnw1 OLD
DATA            183 OWHM_EX1.t.wl1 REPLACE
DATA            184 OWHM_EX1.t.ByNode REPLACE
DATA            185 OWHM_EX1.t.Qsum REPLACE
SWR             171 FarmTestDataSet15.swr OLD
DATA(BINARY)    172 FarmTestDataSet15.Swr_ReachGroupFlows_B REPLACE
DATA(BINARY)    173 FarmTestDataSet15.Swr_ReachStage_B REPLACE
DATA(BINARY)    174 FarmTestDataSet15.Swr_ReachExchange_B REPLACE
DATA            176 FarmTestDataSet15.Swr_StructureFlow_A REPLACE
DATA            177 FarmTestDataSet15.Swr_TimeStepLength_A REPLACE
DATA            179 FarmTestDataSet15.Swr_Obs_A REPLACE
SFR              29 FarmTestDataSet15.sfr OLD
UZF              31 FarmTestDataSet15.uzf OLD
DATA          20206 FarmTestDataSet151.uzfg REPLACE
DATA          20207 FarmTestDataSet152.uzfg REPLACE
DATA          20208 FarmTestDataSet153.uzfg REPLACE
DATA          20209 FarmTestDataSet154.uzfg REPLACE
DATA          20210 FarmTestDataSet155.uzfg REPLACE
FMP             147 FarmTestDataSet15.fmp OLD
DATA(BINARY)    148 FarmTestDataSet15.FDS_BIN REPLACE
DATA            186 FarmTestDataSet15.FID OLD
DATA            152 FarmTestDataSet15.CID OLD
DATA            154 FarmTestDataSet15.CropUse OLD
DATA            155 FarmTestDataSet15.ETR OLD
DATA            158 FarmTestDataSet15.PFLX OLD
DATA            161 FarmTestDataSet15.NonRouteDeliv OLD
DATA            162 FarmTestDataSet15.SemiRouteDeliv OLD
DATA            163 FarmTestDataSet15.SemiRouteReturn OLD
PVAL             52 FarmTestDataSet15.pval OLD
