# Name File for MODFLOW created on 2/1/2017 by ModelMuse Version 3.8.1.27
LIST             11 ..\..\output\output.FarmTimeSeriesBug\FarmTimeSeriesBug.lst REPLACE
DATA(BINARY)      9 ..\..\output\output.FarmTimeSeriesBug\FarmTimeSeriesBug.cbc REPLACE
DIS              12 ..\..\model\model.FarmTimeSeriesBug\FarmTimeSeriesBug.dis OLD
BAS6             13 ..\..\model\model.FarmTimeSeriesBug\FarmTimeSeriesBug.bas OLD
OC               39 ..\..\model\model.FarmTimeSeriesBug\FarmTimeSeriesBug.oc OLD
DATA             37 ..\..\output\output.FarmTimeSeriesBug\FarmTimeSeriesBug.fhd REPLACE
DATA             38 ..\..\output\output.FarmTimeSeriesBug\FarmTimeSeriesBug.fdn REPLACE
DATA            189 ..\..\output\output.FarmTimeSeriesBug\FarmTimeSeriesBug.wbgt REPLACE
NWT             133 ..\..\model\model.FarmTimeSeriesBug\FarmTimeSeriesBug.nwt OLD
UPW             134 ..\..\model\model.FarmTimeSeriesBug\FarmTimeSeriesBug.upw OLD
GHB              19 ..\..\model\model.FarmTimeSeriesBug\FarmTimeSeriesBug.ghb OLD
MNW1            182 ..\..\model\model.FarmTimeSeriesBug\FarmTimeSeriesBug.mnw1 OLD
DATA            183 ..\..\output\output.FarmTimeSeriesBug\OWHM_EX1.t.wl1 REPLACE
DATA            184 ..\..\output\output.FarmTimeSeriesBug\OWHM_EX1.t.ByNode REPLACE
DATA            185 ..\..\output\output.FarmTimeSeriesBug\OWHM_EX1.t.Qsum REPLACE
SWR             171 ..\..\model\model.FarmTimeSeriesBug\FarmTimeSeriesBug.swr OLD
DATA(BINARY)    172 ..\..\output\output.FarmTimeSeriesBug\FarmTimeSeriesBug.Swr_ReachGroupFlows_B REPLACE
DATA(BINARY)    173 ..\..\output\output.FarmTimeSeriesBug\FarmTimeSeriesBug.Swr_ReachStage_B REPLACE
DATA(BINARY)    174 ..\..\output\output.FarmTimeSeriesBug\FarmTimeSeriesBug.Swr_ReachExchange_B REPLACE
DATA            176 ..\..\output\output.FarmTimeSeriesBug\FarmTimeSeriesBug.Swr_StructureFlow_A REPLACE
DATA            177 ..\..\output\output.FarmTimeSeriesBug\FarmTimeSeriesBug.Swr_TimeStepLength_A REPLACE
DATA            179 ..\..\output\output.FarmTimeSeriesBug\FarmTimeSeriesBug.Swr_Obs_A REPLACE
SFR              29 ..\..\model\model.FarmTimeSeriesBug\FarmTimeSeriesBug.sfr OLD
UZF              31 ..\..\model\model.FarmTimeSeriesBug\FarmTimeSeriesBug.uzf OLD
DATA          20206 ..\..\output\output.FarmTimeSeriesBug\FarmTimeSeriesBug1.uzfg REPLACE
DATA          20207 ..\..\output\output.FarmTimeSeriesBug\FarmTimeSeriesBug2.uzfg REPLACE
DATA          20208 ..\..\output\output.FarmTimeSeriesBug\FarmTimeSeriesBug3.uzfg REPLACE
DATA          20209 ..\..\output\output.FarmTimeSeriesBug\FarmTimeSeriesBug4.uzfg REPLACE
DATA          20210 ..\..\output\output.FarmTimeSeriesBug\FarmTimeSeriesBug5.uzfg REPLACE
FMP             147 ..\..\model\model.FarmTimeSeriesBug\FarmTimeSeriesBug.fmp OLD
DATA(BINARY)    148 ..\..\output\output.FarmTimeSeriesBug\FarmTimeSeriesBug.FDS_BIN REPLACE
DATA            186 ..\..\model\model.FarmTimeSeriesBug\FarmTimeSeriesBug.FID OLD
DATA            152 ..\..\model\model.FarmTimeSeriesBug\FarmTimeSeriesBug.CID OLD
DATA            154 ..\..\model\model.FarmTimeSeriesBug\FarmTimeSeriesBug.CropUse OLD
DATA            155 ..\..\model\model.FarmTimeSeriesBug\FarmTimeSeriesBug.ETR OLD
DATA            158 ..\..\model\model.FarmTimeSeriesBug\FarmTimeSeriesBug.PFLX OLD
DATA            161 ..\..\model\model.FarmTimeSeriesBug\FarmTimeSeriesBug.NonRouteDeliv OLD
DATA            162 ..\..\model\model.FarmTimeSeriesBug\FarmTimeSeriesBug.SemiRouteDeliv OLD
DATA            163 ..\..\model\model.FarmTimeSeriesBug\FarmTimeSeriesBug.SemiRouteReturn OLD
PVAL             52 ..\..\model\model.FarmTimeSeriesBug\FarmTimeSeriesBug.pval OLD
