# Name File for MODFLOW created on 8/6/2016 by ModelMuse
LIST             11 FarmTimeSeriesBug.lst REPLACE
DATA(BINARY)      9 FarmTimeSeriesBug.cbc REPLACE
DIS              12 FarmTimeSeriesBug.dis OLD
BAS6             13 FarmTimeSeriesBug.bas OLD
OC               39 FarmTimeSeriesBug.oc OLD
DATA             37 FarmTimeSeriesBug.fhd REPLACE
DATA             38 FarmTimeSeriesBug.fdn REPLACE
DATA            189 FarmTimeSeriesBug.wbgt REPLACE
NWT             133 FarmTimeSeriesBug.nwt OLD
UPW             134 FarmTimeSeriesBug.upw OLD
GHB              19 FarmTimeSeriesBug.ghb OLD
MNW1            182 FarmTimeSeriesBug.mnw1 OLD
DATA            183 OWHM_EX1.t.wl1 REPLACE
DATA            184 OWHM_EX1.t.ByNode REPLACE
DATA            185 OWHM_EX1.t.Qsum REPLACE
SWR             171 FarmTimeSeriesBug.swr OLD
DATA(BINARY)    172 FarmTimeSeriesBug.Swr_ReachGroupFlows_B REPLACE
DATA(BINARY)    173 FarmTimeSeriesBug.Swr_ReachStage_B REPLACE
DATA(BINARY)    174 FarmTimeSeriesBug.Swr_ReachExchange_B REPLACE
DATA            176 FarmTimeSeriesBug.Swr_StructureFlow_A REPLACE
DATA            177 FarmTimeSeriesBug.Swr_TimeStepLength_A REPLACE
DATA            179 FarmTimeSeriesBug.Swr_Obs_A REPLACE
SFR              29 FarmTimeSeriesBug.sfr OLD
UZF              31 FarmTimeSeriesBug.uzf OLD
DATA          20206 FarmTimeSeriesBug1.uzfg REPLACE
DATA          20207 FarmTimeSeriesBug2.uzfg REPLACE
DATA          20208 FarmTimeSeriesBug3.uzfg REPLACE
DATA          20209 FarmTimeSeriesBug4.uzfg REPLACE
DATA          20210 FarmTimeSeriesBug5.uzfg REPLACE
FMP             147 FarmTimeSeriesBug.fmp OLD
DATA(BINARY)    148 FarmTimeSeriesBug.FDS_BIN REPLACE
DATA            186 FarmTimeSeriesBug.FID OLD
DATA            152 FarmTimeSeriesBug.CID OLD
DATA            154 FarmTimeSeriesBug.CropUse OLD
DATA            155 FarmTimeSeriesBug.ETR OLD
DATA            158 FarmTimeSeriesBug.PFLX OLD
DATA            161 FarmTimeSeriesBug.NonRouteDeliv OLD
DATA            162 FarmTimeSeriesBug.SemiRouteDeliv OLD
DATA            163 FarmTimeSeriesBug.SemiRouteReturn OLD
PVAL             52 FarmTimeSeriesBug.pval OLD
