# Name File for MODFLOW created on 2/1/2017 by ModelMuse Version 3.8.1.27
LIST           1011 ..\..\output\output.FarmLgrTest1_Child_1\FarmLgrTest1_Child_1.lst REPLACE
DATA(BINARY)   1009 ..\..\output\output.FarmLgrTest1_Child_1\FarmLgrTest1_Child_1.cbc REPLACE
UZF            1031 ..\..\model\model.FarmLgrTest1_Child_1\FarmLgrTest1_Child_1.uzf OLD
FMP            1147 ..\..\model\model.FarmLgrTest1_Child_1\FarmLgrTest1_Child_1.fmp OLD
DATA(BINARY)   1148 ..\..\output\output.FarmLgrTest1_Child_1\FarmLgrTest1_Child_1.FDS_BIN REPLACE
DATA           1186 ..\..\model\model.FarmLgrTest1_Child_1\FarmLgrTest1_Child_1.FID OLD
DATA           1151 ..\..\model\model.FarmLgrTest1_Child_1\FarmLgrTest1_Child_1.OFE OLD
DATA           1152 ..\..\model\model.FarmLgrTest1_Child_1\FarmLgrTest1_Child_1.CID OLD
DATA           1153 ..\..\model\model.FarmLgrTest1_Child_1\FarmLgrTest1_Child_1.ROOT OLD
DATA           1154 ..\..\model\model.FarmLgrTest1_Child_1\FarmLgrTest1_Child_1.CropUse OLD
DATA           1155 ..\..\model\model.FarmLgrTest1_Child_1\FarmLgrTest1_Child_1.ETR OLD
DATA           1156 ..\..\model\model.FarmLgrTest1_Child_1\FarmLgrTest1_Child_1.ET_Frac OLD
DATA           1157 ..\..\model\model.FarmLgrTest1_Child_1\FarmLgrTest1_Child_1.SW_Losses OLD
DATA           1158 ..\..\model\model.FarmLgrTest1_Child_1\FarmLgrTest1_Child_1.PFLX OLD
DATA           1161 ..\..\model\model.FarmLgrTest1_Child_1\FarmLgrTest1_Child_1.NonRouteDeliv OLD
DATA           1162 ..\..\model\model.FarmLgrTest1_Child_1\FarmLgrTest1_Child_1.SemiRouteDeliv OLD
DATA           1163 ..\..\model\model.FarmLgrTest1_Child_1\FarmLgrTest1_Child_1.SemiRouteReturn OLD
DIS            1012 ..\..\model\model.FarmLgrTest1_Child_1\FarmLgrTest1_Child_1.dis OLD
BAS6           1013 ..\..\model\model.FarmLgrTest1_Child_1\FarmLgrTest1_Child_1.bas OLD
OC             1039 ..\..\model\model.FarmLgrTest1_Child_1\FarmLgrTest1_Child_1.oc OLD
DATA           1037 ..\..\output\output.FarmLgrTest1_Child_1\FarmLgrTest1_Child_1.fhd REPLACE
DATA           1038 ..\..\output\output.FarmLgrTest1_Child_1\FarmLgrTest1_Child_1.fdn REPLACE
DATA           1189 ..\..\output\output.FarmLgrTest1_Child_1\FarmLgrTest1_Child_1.wbgt REPLACE
PCG            1018 ..\..\model\model.FarmLgrTest1_Child_1\FarmLgrTest1_Child_1.pcg OLD
LPF            1014 ..\..\model\model.FarmLgrTest1_Child_1\FarmLgrTest1_Child_1.lpf OLD
SWR            1171 ..\..\model\model.FarmLgrTest1_Child_1\FarmLgrTest1_Child_1.swr OLD
DATA(BINARY)   1172 ..\..\output\output.FarmLgrTest1_Child_1\FarmLgrTest1_Child_1.Swr_ReachGroupFlows_B REPLACE
DATA(BINARY)   1173 ..\..\output\output.FarmLgrTest1_Child_1\FarmLgrTest1_Child_1.Swr_ReachStage_B REPLACE
DATA(BINARY)   1174 ..\..\output\output.FarmLgrTest1_Child_1\FarmLgrTest1_Child_1.Swr_ReachExchange_B REPLACE
DATA           1176 ..\..\output\output.FarmLgrTest1_Child_1\FarmLgrTest1_Child_1.Swr_StructureFlow_A REPLACE
DATA           1177 ..\..\output\output.FarmLgrTest1_Child_1\FarmLgrTest1_Child_1.Swr_TimeStepLength_A REPLACE
DATA           1179 ..\..\output\output.FarmLgrTest1_Child_1\FarmLgrTest1_Child_1.Swr_Obs_A REPLACE
PVAL           1052 ..\..\model\model.FarmLgrTest1_Child_1\FarmLgrTest1_Child_1.pval OLD
