# Name File for MODFLOW created on 8/6/2016 by ModelMuse
LIST             11 FarmTestDataSet39.lst REPLACE
DATA(BINARY)      9 FarmTestDataSet39.cbc REPLACE
DIS              12 FarmTestDataSet39.dis OLD
BAS6             13 FarmTestDataSet39.bas OLD
OC               39 FarmTestDataSet39.oc OLD
DATA             37 FarmTestDataSet39.fhd REPLACE
DATA             38 FarmTestDataSet39.fdn REPLACE
DATA            189 FarmTestDataSet39.wbgt REPLACE
NWT             133 FarmTestDataSet39.nwt OLD
UPW             134 FarmTestDataSet39.upw OLD
GHB              19 FarmTestDataSet39.ghb OLD
MNW1            182 FarmTestDataSet39.mnw1 OLD
DATA            183 OWHM_EX1.t.wl1 REPLACE
DATA            184 OWHM_EX1.t.ByNode REPLACE
DATA            185 OWHM_EX1.t.Qsum REPLACE
SWR             171 FarmTestDataSet39.swr OLD
DATA(BINARY)    172 FarmTestDataSet39.Swr_ReachGroupFlows_B REPLACE
DATA(BINARY)    173 FarmTestDataSet39.Swr_ReachStage_B REPLACE
DATA(BINARY)    174 FarmTestDataSet39.Swr_ReachExchange_B REPLACE
DATA            176 FarmTestDataSet39.Swr_StructureFlow_A REPLACE
DATA            177 FarmTestDataSet39.Swr_TimeStepLength_A REPLACE
DATA            179 FarmTestDataSet39.Swr_Obs_A REPLACE
SFR              29 FarmTestDataSet39.sfr OLD
UZF              31 FarmTestDataSet39.uzf OLD
DATA          20206 FarmTestDataSet391.uzfg REPLACE
DATA          20207 FarmTestDataSet392.uzfg REPLACE
DATA          20208 FarmTestDataSet393.uzfg REPLACE
DATA          20209 FarmTestDataSet394.uzfg REPLACE
DATA          20210 FarmTestDataSet395.uzfg REPLACE
FMP             147 FarmTestDataSet39.fmp OLD
DATA(BINARY)    148 FarmTestDataSet39.FDS_BIN REPLACE
DATA            186 FarmTestDataSet39.FID OLD
DATA            151 FarmTestDataSet39.OFE OLD
DATA            152 FarmTestDataSet39.CID OLD
DATA            153 FarmTestDataSet39.ROOT OLD
DATA            154 FarmTestDataSet39.CropUse OLD
DATA            155 FarmTestDataSet39.ETR OLD
DATA            156 FarmTestDataSet39.ET_Frac OLD
DATA            157 FarmTestDataSet39.SW_Losses OLD
DATA            158 FarmTestDataSet39.PFLX OLD
DATA            159 FarmTestDataSet39.CropFunc OLD
DATA            160 FarmTestDataSet39.WaterCost OLD
DATA            161 FarmTestDataSet39.NonRouteDeliv OLD
DATA            162 FarmTestDataSet39.SemiRouteDeliv OLD
DATA            163 FarmTestDataSet39.SemiRouteReturn OLD
DATA            164 FarmTestDataSet39.CALL OLD
PVAL             52 FarmTestDataSet39.pval OLD
