# Name File for MODFLOW created on 2/1/2017 by ModelMuse Version 3.8.1.27
LIST             11 ..\..\output\output.FarmTestDataSet7\FarmTestDataSet7.lst REPLACE
DATA(BINARY)      9 ..\..\output\output.FarmTestDataSet7\FarmTestDataSet7.cbc REPLACE
DIS              12 ..\..\model\model.FarmTestDataSet7\FarmTestDataSet7.dis OLD
BAS6             13 ..\..\model\model.FarmTestDataSet7\FarmTestDataSet7.bas OLD
OC               39 ..\..\model\model.FarmTestDataSet7\FarmTestDataSet7.oc OLD
DATA             37 ..\..\output\output.FarmTestDataSet7\FarmTestDataSet7.fhd REPLACE
DATA             38 ..\..\output\output.FarmTestDataSet7\FarmTestDataSet7.fdn REPLACE
DATA            189 ..\..\output\output.FarmTestDataSet7\FarmTestDataSet7.wbgt REPLACE
NWT             133 ..\..\model\model.FarmTestDataSet7\FarmTestDataSet7.nwt OLD
UPW             134 ..\..\model\model.FarmTestDataSet7\FarmTestDataSet7.upw OLD
GHB              19 ..\..\model\model.FarmTestDataSet7\FarmTestDataSet7.ghb OLD
MNW1            182 ..\..\model\model.FarmTestDataSet7\FarmTestDataSet7.mnw1 OLD
DATA            183 ..\..\output\output.FarmTestDataSet7\OWHM_EX1.t.wl1 REPLACE
DATA            184 ..\..\output\output.FarmTestDataSet7\OWHM_EX1.t.ByNode REPLACE
DATA            185 ..\..\output\output.FarmTestDataSet7\OWHM_EX1.t.Qsum REPLACE
SWR             171 ..\..\model\model.FarmTestDataSet7\FarmTestDataSet7.swr OLD
DATA(BINARY)    172 ..\..\output\output.FarmTestDataSet7\FarmTestDataSet7.Swr_ReachGroupFlows_B REPLACE
DATA(BINARY)    173 ..\..\output\output.FarmTestDataSet7\FarmTestDataSet7.Swr_ReachStage_B REPLACE
DATA(BINARY)    174 ..\..\output\output.FarmTestDataSet7\FarmTestDataSet7.Swr_ReachExchange_B REPLACE
DATA            176 ..\..\output\output.FarmTestDataSet7\FarmTestDataSet7.Swr_StructureFlow_A REPLACE
DATA            177 ..\..\output\output.FarmTestDataSet7\FarmTestDataSet7.Swr_TimeStepLength_A REPLACE
DATA            179 ..\..\output\output.FarmTestDataSet7\FarmTestDataSet7.Swr_Obs_A REPLACE
SFR              29 ..\..\model\model.FarmTestDataSet7\FarmTestDataSet7.sfr OLD
UZF              31 ..\..\model\model.FarmTestDataSet7\FarmTestDataSet7.uzf OLD
DATA          20206 ..\..\output\output.FarmTestDataSet7\FarmTestDataSet71.uzfg REPLACE
DATA          20207 ..\..\output\output.FarmTestDataSet7\FarmTestDataSet72.uzfg REPLACE
DATA          20208 ..\..\output\output.FarmTestDataSet7\FarmTestDataSet73.uzfg REPLACE
DATA          20209 ..\..\output\output.FarmTestDataSet7\FarmTestDataSet74.uzfg REPLACE
DATA          20210 ..\..\output\output.FarmTestDataSet7\FarmTestDataSet75.uzfg REPLACE
FMP             147 ..\..\model\model.FarmTestDataSet7\FarmTestDataSet7.fmp OLD
DATA(BINARY)    148 ..\..\output\output.FarmTestDataSet7\FarmTestDataSet7.FDS_BIN REPLACE
DATA            186 ..\..\model\model.FarmTestDataSet7\FarmTestDataSet7.FID OLD
DATA            152 ..\..\model\model.FarmTestDataSet7\FarmTestDataSet7.CID OLD
DATA            154 ..\..\model\model.FarmTestDataSet7\FarmTestDataSet7.CropUse OLD
DATA            155 ..\..\model\model.FarmTestDataSet7\FarmTestDataSet7.ETR OLD
DATA            158 ..\..\model\model.FarmTestDataSet7\FarmTestDataSet7.PFLX OLD
DATA            161 ..\..\model\model.FarmTestDataSet7\FarmTestDataSet7.NonRouteDeliv OLD
DATA            162 ..\..\model\model.FarmTestDataSet7\FarmTestDataSet7.SemiRouteDeliv OLD
DATA            163 ..\..\model\model.FarmTestDataSet7\FarmTestDataSet7.SemiRouteReturn OLD
PVAL             52 ..\..\model\model.FarmTestDataSet7\FarmTestDataSet7.pval OLD
