# Name File for MODFLOW created on 8/6/2016 by ModelMuse
LIST             11 FarmTestSwr.lst REPLACE
DATA(BINARY)      9 FarmTestSwr.cbc REPLACE
DIS              12 FarmTestSwr.dis OLD
BAS6             13 FarmTestSwr.bas OLD
OC               39 FarmTestSwr.oc OLD
DATA             37 FarmTestSwr.fhd REPLACE
DATA             38 FarmTestSwr.fdn REPLACE
DATA            189 FarmTestSwr.wbgt REPLACE
PCG              18 FarmTestSwr.pcg OLD
LPF              14 FarmTestSwr.lpf OLD
GHB              19 FarmTestSwr.ghb OLD
MNW1            182 FarmTestSwr.mnw1 OLD
DATA            183 OWHM_EX1.t.wl1 REPLACE
DATA            184 OWHM_EX1.t.ByNode REPLACE
DATA            185 OWHM_EX1.t.Qsum REPLACE
SWR             171 FarmTestSwr.swr OLD
DATA(BINARY)    172 FarmTestSwr.Swr_ReachGroupFlows_B REPLACE
DATA(BINARY)    173 FarmTestSwr.Swr_ReachStage_B REPLACE
DATA(BINARY)    174 FarmTestSwr.Swr_ReachExchange_B REPLACE
DATA            176 FarmTestSwr.Swr_StructureFlow_A REPLACE
DATA            177 FarmTestSwr.Swr_TimeStepLength_A REPLACE
DATA            179 FarmTestSwr.Swr_Obs_A REPLACE
SFR              29 FarmTestSwr.sfr OLD
UZF              31 FarmTestSwr.uzf OLD
DATA          20206 FarmTestSwr1.uzfg REPLACE
DATA          20207 FarmTestSwr2.uzfg REPLACE
DATA          20208 FarmTestSwr3.uzfg REPLACE
DATA          20209 FarmTestSwr4.uzfg REPLACE
DATA          20210 FarmTestSwr5.uzfg REPLACE
FMP             147 FarmTestSwr.fmp OLD
DATA(BINARY)    148 FarmTestSwr.FDS_BIN REPLACE
DATA            186 FarmTestSwr.FID OLD
DATA            151 FarmTestSwr.OFE OLD
DATA            152 FarmTestSwr.CID OLD
DATA            153 FarmTestSwr.ROOT OLD
DATA            154 FarmTestSwr.CropUse OLD
DATA            155 FarmTestSwr.ETR OLD
DATA            156 FarmTestSwr.ET_Frac OLD
DATA            157 FarmTestSwr.SW_Losses OLD
DATA            158 FarmTestSwr.PFLX OLD
DATA            161 FarmTestSwr.NonRouteDeliv OLD
DATA            162 FarmTestSwr.SemiRouteDeliv OLD
DATA            163 FarmTestSwr.SemiRouteReturn OLD
PVAL             52 FarmTestSwr.pval OLD
