# Name File for MODFLOW created on 2/1/2017 by ModelMuse Version 3.8.1.27
LIST             11 ..\..\output\output.FarmTestDataSet25\FarmTestDataSet25.lst REPLACE
DATA(BINARY)      9 ..\..\output\output.FarmTestDataSet25\FarmTestDataSet25.cbc REPLACE
DIS              12 ..\..\model\model.FarmTestDataSet25\FarmTestDataSet25.dis OLD
BAS6             13 ..\..\model\model.FarmTestDataSet25\FarmTestDataSet25.bas OLD
OC               39 ..\..\model\model.FarmTestDataSet25\FarmTestDataSet25.oc OLD
DATA             37 ..\..\output\output.FarmTestDataSet25\FarmTestDataSet25.fhd REPLACE
DATA             38 ..\..\output\output.FarmTestDataSet25\FarmTestDataSet25.fdn REPLACE
DATA            189 ..\..\output\output.FarmTestDataSet25\FarmTestDataSet25.wbgt REPLACE
NWT             133 ..\..\model\model.FarmTestDataSet25\FarmTestDataSet25.nwt OLD
UPW             134 ..\..\model\model.FarmTestDataSet25\FarmTestDataSet25.upw OLD
GHB              19 ..\..\model\model.FarmTestDataSet25\FarmTestDataSet25.ghb OLD
MNW1            182 ..\..\model\model.FarmTestDataSet25\FarmTestDataSet25.mnw1 OLD
DATA            183 ..\..\output\output.FarmTestDataSet25\OWHM_EX1.t.wl1 REPLACE
DATA            184 ..\..\output\output.FarmTestDataSet25\OWHM_EX1.t.ByNode REPLACE
DATA            185 ..\..\output\output.FarmTestDataSet25\OWHM_EX1.t.Qsum REPLACE
SWR             171 ..\..\model\model.FarmTestDataSet25\FarmTestDataSet25.swr OLD
DATA(BINARY)    172 ..\..\output\output.FarmTestDataSet25\FarmTestDataSet25.Swr_ReachGroupFlows_B REPLACE
DATA(BINARY)    173 ..\..\output\output.FarmTestDataSet25\FarmTestDataSet25.Swr_ReachStage_B REPLACE
DATA(BINARY)    174 ..\..\output\output.FarmTestDataSet25\FarmTestDataSet25.Swr_ReachExchange_B REPLACE
DATA            176 ..\..\output\output.FarmTestDataSet25\FarmTestDataSet25.Swr_StructureFlow_A REPLACE
DATA            177 ..\..\output\output.FarmTestDataSet25\FarmTestDataSet25.Swr_TimeStepLength_A REPLACE
DATA            179 ..\..\output\output.FarmTestDataSet25\FarmTestDataSet25.Swr_Obs_A REPLACE
SFR              29 ..\..\model\model.FarmTestDataSet25\FarmTestDataSet25.sfr OLD
UZF              31 ..\..\model\model.FarmTestDataSet25\FarmTestDataSet25.uzf OLD
DATA          20206 ..\..\output\output.FarmTestDataSet25\FarmTestDataSet251.uzfg REPLACE
DATA          20207 ..\..\output\output.FarmTestDataSet25\FarmTestDataSet252.uzfg REPLACE
DATA          20208 ..\..\output\output.FarmTestDataSet25\FarmTestDataSet253.uzfg REPLACE
DATA          20209 ..\..\output\output.FarmTestDataSet25\FarmTestDataSet254.uzfg REPLACE
DATA          20210 ..\..\output\output.FarmTestDataSet25\FarmTestDataSet255.uzfg REPLACE
FMP             147 ..\..\model\model.FarmTestDataSet25\FarmTestDataSet25.fmp OLD
DATA(BINARY)    148 ..\..\output\output.FarmTestDataSet25\FarmTestDataSet25.FDS_BIN REPLACE
DATA            186 ..\..\model\model.FarmTestDataSet25\FarmTestDataSet25.FID OLD
DATA            151 ..\..\model\model.FarmTestDataSet25\FarmTestDataSet25.OFE OLD
DATA            152 ..\..\model\model.FarmTestDataSet25\FarmTestDataSet25.CID OLD
DATA            153 ..\..\model\model.FarmTestDataSet25\FarmTestDataSet25.ROOT OLD
DATA            154 ..\..\model\model.FarmTestDataSet25\FarmTestDataSet25.CropUse OLD
DATA            155 ..\..\model\model.FarmTestDataSet25\FarmTestDataSet25.ETR OLD
DATA            156 ..\..\model\model.FarmTestDataSet25\FarmTestDataSet25.ET_Frac OLD
DATA            157 ..\..\model\model.FarmTestDataSet25\FarmTestDataSet25.SW_Losses OLD
DATA            158 ..\..\model\model.FarmTestDataSet25\FarmTestDataSet25.PFLX OLD
DATA            161 ..\..\model\model.FarmTestDataSet25\FarmTestDataSet25.NonRouteDeliv OLD
DATA            162 ..\..\model\model.FarmTestDataSet25\FarmTestDataSet25.SemiRouteDeliv OLD
DATA            163 ..\..\model\model.FarmTestDataSet25\FarmTestDataSet25.SemiRouteReturn OLD
PVAL             52 ..\..\model\model.FarmTestDataSet25\FarmTestDataSet25.pval OLD
