# Name File for MODFLOW created on 8/6/2016 by ModelMuse
LIST           1011 FarmLgrTest1_Child_1.lst REPLACE
DATA(BINARY)   1009 FarmLgrTest1_Child_1.cbc REPLACE
UZF            1031 FarmLgrTest1_Child_1.uzf OLD
FMP            1147 FarmLgrTest1_Child_1.fmp OLD
DATA(BINARY)   1148 FarmLgrTest1_Child_1.FDS_BIN REPLACE
DATA           1186 FarmLgrTest1_Child_1.FID OLD
DATA           1151 FarmLgrTest1_Child_1.OFE OLD
DATA           1152 FarmLgrTest1_Child_1.CID OLD
DATA           1153 FarmLgrTest1_Child_1.ROOT OLD
DATA           1154 FarmLgrTest1_Child_1.CropUse OLD
DATA           1155 FarmLgrTest1_Child_1.ETR OLD
DATA           1156 FarmLgrTest1_Child_1.ET_Frac OLD
DATA           1157 FarmLgrTest1_Child_1.SW_Losses OLD
DATA           1158 FarmLgrTest1_Child_1.PFLX OLD
DATA           1161 FarmLgrTest1_Child_1.NonRouteDeliv OLD
DATA           1162 FarmLgrTest1_Child_1.SemiRouteDeliv OLD
DATA           1163 FarmLgrTest1_Child_1.SemiRouteReturn OLD
DIS            1012 FarmLgrTest1_Child_1.dis OLD
BAS6           1013 FarmLgrTest1_Child_1.bas OLD
OC             1039 FarmLgrTest1_Child_1.oc OLD
DATA           1037 FarmLgrTest1_Child_1.fhd REPLACE
DATA           1038 FarmLgrTest1_Child_1.fdn REPLACE
DATA           1189 FarmLgrTest1_Child_1.wbgt REPLACE
PCG            1018 FarmLgrTest1_Child_1.pcg OLD
LPF            1014 FarmLgrTest1_Child_1.lpf OLD
SWR            1171 FarmLgrTest1_Child_1.swr OLD
DATA(BINARY)   1172 FarmLgrTest1_Child_1.Swr_ReachGroupFlows_B REPLACE
DATA(BINARY)   1173 FarmLgrTest1_Child_1.Swr_ReachStage_B REPLACE
DATA(BINARY)   1174 FarmLgrTest1_Child_1.Swr_ReachExchange_B REPLACE
DATA           1176 FarmLgrTest1_Child_1.Swr_StructureFlow_A REPLACE
DATA           1177 FarmLgrTest1_Child_1.Swr_TimeStepLength_A REPLACE
DATA           1179 FarmLgrTest1_Child_1.Swr_Obs_A REPLACE
PVAL           1052 FarmLgrTest1_Child_1.pval OLD
