# Name File for MODFLOW created on 8/6/2016 by ModelMuse
LIST             11 FarmMnw2Test.lst REPLACE
DATA(BINARY)      9 FarmMnw2Test.cbc REPLACE
DIS              12 FarmMnw2Test.dis OLD
BAS6             13 FarmMnw2Test.bas OLD
OC               39 FarmMnw2Test.oc OLD
DATA             37 FarmMnw2Test.fhd REPLACE
DATA             38 FarmMnw2Test.fdn REPLACE
DATA            189 FarmMnw2Test.wbgt REPLACE
PCG              18 FarmMnw2Test.pcg OLD
LPF              14 FarmMnw2Test.lpf OLD
GHB              19 FarmMnw2Test.ghb OLD
MNW2             59 FarmMnw2Test.mnw2 OLD
MNWI             60 FarmMnw2Test.mnwi OLD
DATA             61 FarmMnw2Test.wel_out REPLACE
DATA             62 FarmMnw2Test.QSUM_out REPLACE
DATA             63 FarmMnw2Test.BYND_out REPLACE
SWR             171 FarmMnw2Test.swr OLD
DATA(BINARY)    172 FarmMnw2Test.Swr_ReachGroupFlows_B REPLACE
DATA(BINARY)    173 FarmMnw2Test.Swr_ReachStage_B REPLACE
DATA(BINARY)    174 FarmMnw2Test.Swr_ReachExchange_B REPLACE
DATA            176 FarmMnw2Test.Swr_StructureFlow_A REPLACE
DATA            177 FarmMnw2Test.Swr_TimeStepLength_A REPLACE
DATA            179 FarmMnw2Test.Swr_Obs_A REPLACE
SFR              29 FarmMnw2Test.sfr OLD
UZF              31 FarmMnw2Test.uzf OLD
DATA          20206 FarmMnw2Test1.uzfg REPLACE
DATA          20207 FarmMnw2Test2.uzfg REPLACE
DATA          20208 FarmMnw2Test3.uzfg REPLACE
DATA          20209 FarmMnw2Test4.uzfg REPLACE
DATA          20210 FarmMnw2Test5.uzfg REPLACE
FMP             147 FarmMnw2Test.fmp OLD
DATA(BINARY)    148 FarmMnw2Test.FDS_BIN REPLACE
DATA            186 FarmMnw2Test.FID OLD
DATA            151 FarmMnw2Test.OFE OLD
DATA            152 FarmMnw2Test.CID OLD
DATA            153 FarmMnw2Test.ROOT OLD
DATA            154 FarmMnw2Test.CropUse OLD
DATA            155 FarmMnw2Test.ETR OLD
DATA            156 FarmMnw2Test.ET_Frac OLD
DATA            157 FarmMnw2Test.SW_Losses OLD
DATA            158 FarmMnw2Test.PFLX OLD
DATA            161 FarmMnw2Test.NonRouteDeliv OLD
DATA            162 FarmMnw2Test.SemiRouteDeliv OLD
DATA            163 FarmMnw2Test.SemiRouteReturn OLD
PVAL             52 FarmMnw2Test.pval OLD
