# Name File for MODFLOW created on 8/6/2016 by ModelMuse
LIST             11 FarmLgrTest1.lst REPLACE
DATA(BINARY)      9 FarmLgrTest1.cbc REPLACE
DATA            131 FarmLgrTest1.bfh_head REPLACE
DATA            132 FarmLgrTest1.bfh_flux REPLACE
DIS              12 FarmLgrTest1.dis OLD
BAS6             13 FarmLgrTest1.bas OLD
OC               39 FarmLgrTest1.oc OLD
DATA             37 FarmLgrTest1.fhd REPLACE
DATA             38 FarmLgrTest1.fdn REPLACE
DATA            189 FarmLgrTest1.wbgt REPLACE
PCG              18 FarmLgrTest1.pcg OLD
LPF              14 FarmLgrTest1.lpf OLD
GHB              19 FarmLgrTest1.ghb OLD
MNW1            182 FarmLgrTest1.mnw1 OLD
SWR             171 FarmLgrTest1.swr OLD
DATA(BINARY)    172 FarmLgrTest1.Swr_ReachGroupFlows_B REPLACE
DATA(BINARY)    173 FarmLgrTest1.Swr_ReachStage_B REPLACE
DATA(BINARY)    174 FarmLgrTest1.Swr_ReachExchange_B REPLACE
DATA            176 FarmLgrTest1.Swr_StructureFlow_A REPLACE
DATA            177 FarmLgrTest1.Swr_TimeStepLength_A REPLACE
DATA            179 FarmLgrTest1.Swr_Obs_A REPLACE
SFR              29 FarmLgrTest1.sfr OLD
UZF              31 FarmLgrTest1.uzf OLD
DATA          20206 FarmLgrTest11.uzfg REPLACE
DATA          20207 FarmLgrTest12.uzfg REPLACE
DATA          20208 FarmLgrTest13.uzfg REPLACE
DATA          20209 FarmLgrTest14.uzfg REPLACE
DATA          20210 FarmLgrTest15.uzfg REPLACE
FMP             147 FarmLgrTest1.fmp OLD
DATA(BINARY)    148 FarmLgrTest1.FDS_BIN REPLACE
DATA            186 FarmLgrTest1.FID OLD
DATA            151 FarmLgrTest1.OFE OLD
DATA            152 FarmLgrTest1.CID OLD
DATA            153 FarmLgrTest1.ROOT OLD
DATA            154 FarmLgrTest1.CropUse OLD
DATA            155 FarmLgrTest1.ETR OLD
DATA            156 FarmLgrTest1.ET_Frac OLD
DATA            157 FarmLgrTest1.SW_Losses OLD
DATA            158 FarmLgrTest1.PFLX OLD
DATA            161 FarmLgrTest1.NonRouteDeliv OLD
DATA            162 FarmLgrTest1.SemiRouteDeliv OLD
DATA            163 FarmLgrTest1.SemiRouteReturn OLD
PVAL             52 FarmLgrTest1.pval OLD
