# Name File for MODFLOW created on 12/14/2015 by ModelMuse
LIST             11 FlowModel_Recital1.lst REPLACE
DATA(BINARY)      9 FlowModel_Recital1.cbc REPLACE
DIS              12 FlowModel_Recital1.dis OLD
BAS6             13 FlowModel_Recital1.bas OLD
OC               39 FlowModel_Recital1.oc OLD
DATA             37 FlowModel_Recital1.fhd REPLACE
DATA             38 FlowModel_Recital1.fdn REPLACE
PCG              18 FlowModel_Recital1.pcg OLD
LPF              14 FlowModel_Recital1.lpf OLD
CHD              17 FlowModel_Recital1.chd OLD
DRN              22 FlowModel_Recital1.drn OLD
RCH              24 FlowModel_Recital1.rch OLD
