# Name File for MODFLOW created on 2/1/2017 by ModelMuse Version 3.8.1.27
LIST             11 ..\..\output\output.FlowModel_Recital1\FlowModel_Recital1.lst REPLACE
DATA(BINARY)      9 ..\..\output\output.FlowModel_Recital1\FlowModel_Recital1.cbc REPLACE
DIS              12 ..\..\model\model.FlowModel_Recital1\FlowModel_Recital1.dis OLD
BAS6             13 ..\..\model\model.FlowModel_Recital1\FlowModel_Recital1.bas OLD
OC               39 ..\..\model\model.FlowModel_Recital1\FlowModel_Recital1.oc OLD
DATA             37 ..\..\output\output.FlowModel_Recital1\FlowModel_Recital1.fhd REPLACE
DATA             38 ..\..\output\output.FlowModel_Recital1\FlowModel_Recital1.fdn REPLACE
PCG              18 ..\..\model\model.FlowModel_Recital1\FlowModel_Recital1.pcg OLD
LPF              14 ..\..\model\model.FlowModel_Recital1\FlowModel_Recital1.lpf OLD
CHD              17 ..\..\model\model.FlowModel_Recital1\FlowModel_Recital1.chd OLD
DRN              22 ..\..\model\model.FlowModel_Recital1\FlowModel_Recital1.drn OLD
RCH              24 ..\..\model\model.FlowModel_Recital1\FlowModel_Recital1.rch OLD
