# Basic Package file created on 2/8/2024 by ModelMuse version 5.1.1.53.
# Number of active cells = 300.
BEGIN OPTIONS
  FREE 
  CHTOCH 
  PRINTTIME 
  MAX_RELATIVE_VOLUME_ERROR 2.0
  NO_SHOWPROGRESS
END OPTIONS
CONSTANT        1 # IBOUND Upper Aquifer
CONSTANT        1 # IBOUND Middle Aquifer
CONSTANT        1 # IBOUND Lower Aquifer
 -1.000000000000E+020  # HNOFLO
CONSTANT     0.000000000000E+000  # STRT Upper Aquifer
CONSTANT     0.000000000000E+000  # STRT Middle Aquifer
CONSTANT     0.000000000000E+000  # STRT Lower Aquifer
