# Name File for MODFLOW created on 6/7/2023 by ModelMuse Version 5.1.1.29
LIST             11 Fmp2Example.lst REPLACE
DATA(BINARY)      9 Fmp2Example.cbc REPLACE
DIS              12 Fmp2Example.dis OLD
BAS6             13 Fmp2Example.bas OLD
OC               39 Fmp2Example.oc OLD
DATA             37 Fmp2Example.fhd REPLACE
DATA             38 Fmp2Example.fdn REPLACE
DATA            189 Fmp2Example.wbgt REPLACE
PCG              18 Fmp2Example.pcg OLD
LPF              14 Fmp2Example.lpf OLD
GHB              19 Fmp2Example.ghb OLD
MNW2             59 Fmp2Example.mnw2 OLD
SWR             171 Fmp2Example.swr OLD
DATA(BINARY)    172 Fmp2Example.Swr_ReachGroupFlows_B REPLACE
DATA(BINARY)    173 Fmp2Example.Swr_ReachStage_B REPLACE
DATA(BINARY)    174 Fmp2Example.Swr_ReachExchange_B REPLACE
DATA            176 Fmp2Example.Swr_StructureFlow_A REPLACE
DATA            177 Fmp2Example.Swr_TimeStepLength_A REPLACE
DATA            179 Fmp2Example.Swr_Obs_A REPLACE
SFR              29 Fmp2Example.sfr OLD
UZF              31 Fmp2Example.uzf OLD
DATA          20206 Fmp2Example1.uzfg REPLACE
DATA          20207 Fmp2Example2.uzfg REPLACE
DATA          20208 Fmp2Example3.uzfg REPLACE
DATA          20209 Fmp2Example4.uzfg REPLACE
DATA          20210 Fmp2Example5.uzfg REPLACE
FMP             147 Fmp2Example.fmp OLD
SUB              65 Fmp2Example.sub OLD
DATA(BINARY)     66 Fmp2Example.rst REPLACE
DATA(BINARY)    110 Fmp2Example.Sub_Out REPLACE
