# Name File for MODFLOW created on 6/7/2023 by ModelMuse Version 5.1.1.29
LIST             11 Fmp2BoundariesSingle.lst REPLACE
DATA(BINARY)      9 Fmp2BoundariesSingle.cbc REPLACE
DIS              12 Fmp2BoundariesSingle.dis OLD
BAS6             13 Fmp2BoundariesSingle.bas OLD
OC               39 Fmp2BoundariesSingle.oc OLD
DATA             37 Fmp2BoundariesSingle.fhd REPLACE
DATA             38 Fmp2BoundariesSingle.fdn REPLACE
DATA            189 Fmp2BoundariesSingle.wbgt REPLACE
PCG              18 Fmp2BoundariesSingle.pcg OLD
LPF              14 Fmp2BoundariesSingle.lpf OLD
SFR              29 Fmp2BoundariesSingle.sfr OLD
FMP             147 Fmp2BoundariesSingle.fmp OLD
