# Name File for MODFLOW created on 6/7/2023 by ModelMuse Version 5.1.1.29
LIST             11 Fmp2BoundariesMultiple.lst REPLACE
DATA(BINARY)      9 Fmp2BoundariesMultiple.cbc REPLACE
DIS              12 Fmp2BoundariesMultiple.dis OLD
BAS6             13 Fmp2BoundariesMultiple.bas OLD
OC               39 Fmp2BoundariesMultiple.oc OLD
DATA             37 Fmp2BoundariesMultiple.fhd REPLACE
DATA             38 Fmp2BoundariesMultiple.fdn REPLACE
DATA            189 Fmp2BoundariesMultiple.wbgt REPLACE
PCG              18 Fmp2BoundariesMultiple.pcg OLD
LPF              14 Fmp2BoundariesMultiple.lpf OLD
SFR              29 Fmp2BoundariesMultiple.sfr OLD
FMP             147 Fmp2BoundariesMultiple.fmp OLD
