# Name File for MODFLOW created on 6/7/2023 by ModelMuse Version 5.1.1.29
LIST             11 ..\..\output\output.Fmp2BoundariesSingle\Fmp2BoundariesSingle.lst REPLACE
DATA(BINARY)      9 ..\..\output\output.Fmp2BoundariesSingle\Fmp2BoundariesSingle.cbc REPLACE
DIS              12 ..\..\model\model.Fmp2BoundariesSingle\Fmp2BoundariesSingle.dis OLD
BAS6             13 ..\..\model\model.Fmp2BoundariesSingle\Fmp2BoundariesSingle.bas OLD
OC               39 ..\..\model\model.Fmp2BoundariesSingle\Fmp2BoundariesSingle.oc OLD
DATA             37 ..\..\output\output.Fmp2BoundariesSingle\Fmp2BoundariesSingle.fhd REPLACE
DATA             38 ..\..\output\output.Fmp2BoundariesSingle\Fmp2BoundariesSingle.fdn REPLACE
DATA            189 ..\..\output\output.Fmp2BoundariesSingle\Fmp2BoundariesSingle.wbgt REPLACE
PCG              18 ..\..\model\model.Fmp2BoundariesSingle\Fmp2BoundariesSingle.pcg OLD
LPF              14 ..\..\model\model.Fmp2BoundariesSingle\Fmp2BoundariesSingle.lpf OLD
SFR              29 ..\..\model\model.Fmp2BoundariesSingle\Fmp2BoundariesSingle.sfr OLD
FMP             147 ..\..\model\model.Fmp2BoundariesSingle\Fmp2BoundariesSingle.fmp OLD
