# Name File for MODFLOW created on 6/7/2023 by ModelMuse Version 5.1.1.29
LIST             11 ..\..\output\output.Fmp2BoundariesMultiple\Fmp2BoundariesMultiple.lst REPLACE
DATA(BINARY)      9 ..\..\output\output.Fmp2BoundariesMultiple\Fmp2BoundariesMultiple.cbc REPLACE
DIS              12 ..\..\model\model.Fmp2BoundariesMultiple\Fmp2BoundariesMultiple.dis OLD
BAS6             13 ..\..\model\model.Fmp2BoundariesMultiple\Fmp2BoundariesMultiple.bas OLD
OC               39 ..\..\model\model.Fmp2BoundariesMultiple\Fmp2BoundariesMultiple.oc OLD
DATA             37 ..\..\output\output.Fmp2BoundariesMultiple\Fmp2BoundariesMultiple.fhd REPLACE
DATA             38 ..\..\output\output.Fmp2BoundariesMultiple\Fmp2BoundariesMultiple.fdn REPLACE
DATA            189 ..\..\output\output.Fmp2BoundariesMultiple\Fmp2BoundariesMultiple.wbgt REPLACE
PCG              18 ..\..\model\model.Fmp2BoundariesMultiple\Fmp2BoundariesMultiple.pcg OLD
LPF              14 ..\..\model\model.Fmp2BoundariesMultiple\Fmp2BoundariesMultiple.lpf OLD
SFR              29 ..\..\model\model.Fmp2BoundariesMultiple\Fmp2BoundariesMultiple.sfr OLD
FMP             147 ..\..\model\model.Fmp2BoundariesMultiple\Fmp2BoundariesMultiple.fmp OLD
