# Name File for MODFLOW created on 6/7/2023 by ModelMuse Version 5.1.1.29
LIST             11 ..\..\output\output.Fmp2Example\Fmp2Example.lst REPLACE
DATA(BINARY)      9 ..\..\output\output.Fmp2Example\Fmp2Example.cbc REPLACE
DIS              12 ..\..\model\model.Fmp2Example\Fmp2Example.dis OLD
BAS6             13 ..\..\model\model.Fmp2Example\Fmp2Example.bas OLD
OC               39 ..\..\model\model.Fmp2Example\Fmp2Example.oc OLD
DATA             37 ..\..\output\output.Fmp2Example\Fmp2Example.fhd REPLACE
DATA             38 ..\..\output\output.Fmp2Example\Fmp2Example.fdn REPLACE
DATA            189 ..\..\output\output.Fmp2Example\Fmp2Example.wbgt REPLACE
PCG              18 ..\..\model\model.Fmp2Example\Fmp2Example.pcg OLD
LPF              14 ..\..\model\model.Fmp2Example\Fmp2Example.lpf OLD
GHB              19 ..\..\model\model.Fmp2Example\Fmp2Example.ghb OLD
MNW2             59 ..\..\model\model.Fmp2Example\Fmp2Example.mnw2 OLD
SWR             171 ..\..\model\model.Fmp2Example\Fmp2Example.swr OLD
DATA(BINARY)    172 ..\..\output\output.Fmp2Example\Fmp2Example.Swr_ReachGroupFlows_B REPLACE
DATA(BINARY)    173 ..\..\output\output.Fmp2Example\Fmp2Example.Swr_ReachStage_B REPLACE
DATA(BINARY)    174 ..\..\output\output.Fmp2Example\Fmp2Example.Swr_ReachExchange_B REPLACE
DATA            176 ..\..\output\output.Fmp2Example\Fmp2Example.Swr_StructureFlow_A REPLACE
DATA            177 ..\..\output\output.Fmp2Example\Fmp2Example.Swr_TimeStepLength_A REPLACE
DATA            179 ..\..\output\output.Fmp2Example\Fmp2Example.Swr_Obs_A REPLACE
SFR              29 ..\..\model\model.Fmp2Example\Fmp2Example.sfr OLD
UZF              31 ..\..\model\model.Fmp2Example\Fmp2Example.uzf OLD
DATA          20206 ..\..\output\output.Fmp2Example\Fmp2Example1.uzfg REPLACE
DATA          20207 ..\..\output\output.Fmp2Example\Fmp2Example2.uzfg REPLACE
DATA          20208 ..\..\output\output.Fmp2Example\Fmp2Example3.uzfg REPLACE
DATA          20209 ..\..\output\output.Fmp2Example\Fmp2Example4.uzfg REPLACE
DATA          20210 ..\..\output\output.Fmp2Example\Fmp2Example5.uzfg REPLACE
FMP             147 ..\..\model\model.Fmp2Example\Fmp2Example.fmp OLD
SUB              65 ..\..\model\model.Fmp2Example\Fmp2Example.sub OLD
DATA(BINARY)     66 ..\..\output\output.Fmp2Example\Fmp2Example.rst REPLACE
DATA(BINARY)    110 ..\..\output\output.Fmp2Example\Fmp2Example.Sub_Out REPLACE
