pcf
* control data
restart regularisation # RSTFLE PESTMODE
     1     0     0     1     8     1 # NPAR NOBS NPARGP, NPRIOR NOBSGP, MAXCOMPRDIM
     1     1 double nopoint noobsreref # NTPLFLE, NINSFLE, PRECIS, DPOINT, OBSREREF
  1.000000000000E+001   2.000000000000E+000   3.000000000000E-001   1.000000000000E-002     10     0 lamforgive noderforgive # RLAMBDA1, RLAMFAC, PHIRATSUF, PHIREDLAM, NUMLAM, JACUPDATE, LAMFORGIVE, DERFORGIVE
  3.000000000000E+000   3.000000000000E+000   1.000000000000E-003      0     1 # RELPARMAX, FACPARMAX, FACORIG, IBOUNDSTICK, UPVECBEND
  1.000000000000E-001      3  0.000000000000E+000  noaui nosenreuse boundscale # PHIREDSWH, NOPTSWITCH, SPLITSWH, DOAUI, DOSENREUSE, BOUNDSCALE
    50  5.000000000000E-003      4     4  5.000000000000E-003      4  0.000000000000E+000      1  0.000000000000E+000  # NOPTMAX, PHIREDSTP, NPHISTP, NPHINORED, RELPARSTP, NRELPAR, PHISTOPTHRESH, LASTRUN, PHIABANDON
     0     0     0     0 jcosave nojcosaveitn verboserec reisaveitn parsaveitn noparsaverun # ICOV, ICOR, IEIG, IRES, JCOSAVE, JCOSAVEITN, VERBOSEREC, RESSAVEITN, PARSAVEITN, PARSAVERUN

* singular value decomposition
     1 # SVDMODE
  1000  5.000000000000E-007  # MAXSING, EIGTHRESH
     0 # EIGWRITE

* lsqr
     0 # LSQRMODE
  1.000000000000E-004   1.000000000000E-004   1.000000000000E+003      4 # LSQR_ATOL LSQR_BTOL LSQR_CONLIM LSQR_ITNLIM
     1 # LSQRWRITE

* parameter groups

* parameter data
P1 none relative  1.500000000000E+000   0.000000000000E+000   0.000000000000E+000  none  1.000000000000E+000   0.000000000000E+000 

* observation groups
CHOB_flows
GHB_flows
DRN_flows
RIV_flows
STR_flows
Heads
Head_Changes
regul_Grp1

* observation data

* model command line
RunModel.Bat

* model input/output
FmpDialogs.ptf FmpDialogs.pval
FmpDialogs.PestIns FmpDialogs.Mf2005Values

* prior information
# Equation for initial value for parameter P1.
 eq_1          1.0 * P1 = 1.5       1     regul_Grp1

* regularisation
  1.000000000000E-010   1.050000000000E-010   1.000000000000E-001  nomemsave
  1.000000000000E+000   1.000000000000E-010   1.000000000000E+010  nonlinreg nocontinue # WFINIT WFMIN WFMAX LINREG REGCONTINUE
  1.300000000000E+000   1.000000000000E-002      1 # WFFAC WFTOL IREGADJ
