# Name File for MODFLOW created on 6/7/2023 by ModelMuse Version 5.1.1.29
LIST             11 FmpDialogs.lst REPLACE
DATA(BINARY)      9 FmpDialogs.cbc REPLACE
DIS              12 FmpDialogs.dis OLD
BAS6             13 FmpDialogs.bas OLD
OC               39 FmpDialogs.oc OLD
DATA             37 FmpDialogs.fhd REPLACE
DATA             38 FmpDialogs.fdn REPLACE
DATA            189 FmpDialogs.wbgt REPLACE
PCG              18 FmpDialogs.pcg OLD
LPF              14 FmpDialogs.lpf OLD
SFR              29 FmpDialogs.sfr OLD
FMP             147 FmpDialogs.fmp OLD
