# Name File for MODFLOW created on 6/7/2023 by ModelMuse Version 5.1.1.29
LIST             11 ..\..\output\output.FmpDialogs\FmpDialogs.lst REPLACE
DATA(BINARY)      9 ..\..\output\output.FmpDialogs\FmpDialogs.cbc REPLACE
DIS              12 ..\..\model\model.FmpDialogs\FmpDialogs.dis OLD
BAS6             13 ..\..\model\model.FmpDialogs\FmpDialogs.bas OLD
OC               39 ..\..\model\model.FmpDialogs\FmpDialogs.oc OLD
DATA             37 ..\..\output\output.FmpDialogs\FmpDialogs.fhd REPLACE
DATA             38 ..\..\output\output.FmpDialogs\FmpDialogs.fdn REPLACE
DATA            189 ..\..\output\output.FmpDialogs\FmpDialogs.wbgt REPLACE
PCG              18 ..\..\model\model.FmpDialogs\FmpDialogs.pcg OLD
LPF              14 ..\..\model\model.FmpDialogs\FmpDialogs.lpf OLD
SFR              29 ..\..\model\model.FmpDialogs\FmpDialogs.sfr OLD
FMP             147 ..\..\model\model.FmpDialogs\FmpDialogs.fmp OLD
