# Name File for MODFLOW created on 6/21/2017 by ModelMuse Version 3.9.0.4
LIST             11 FractionBug2.lst REPLACE
DATA(BINARY)      9 FractionBug2.cbc REPLACE
DIS              12 FractionBug2.dis OLD
BAS6             13 FractionBug2.bas OLD
OC               39 FractionBug2.oc OLD
DATA             37 FractionBug2.fhd REPLACE
DATA             38 FractionBug2.fdn REPLACE
PCG              18 FractionBug2.pcg OLD
LPF              14 FractionBug2.lpf OLD
