# Name File for MODFLOW created on 12/14/2015 by ModelMuse
LIST             11 GageTest.lst REPLACE
DATA(BINARY)      9 GageTest.cbc REPLACE
DIS              12 GageTest.dis OLD
BAS6             13 GageTest.bas OLD
OC               39 GageTest.oc OLD
DATA             37 GageTest.fhd REPLACE
DATA             38 GageTest.fdn REPLACE
PCG              18 GageTest.pcg OLD
LPF              14 GageTest.lpf OLD
CHD              17 GageTest.chd OLD
SFR              29 GageTest.sfr OLD
DATA          20205 GageTest.sfrg1 REPLACE
DATA          20206 GageTest.sfrg2 REPLACE
DATA          20207 GageTest.sfrg3 REPLACE
DATA          20208 GageTest.sfrg4 REPLACE
GAGE             40 GageTest.gag OLD
