BEGIN OPTIONS
  PRINT_INPUT
END OPTIONS

BEGIN TIMING
  TDIS6 'GncTest.tdis'
END TIMING

BEGIN MODELS
  GWF6 'GncTest.nam' 'MODFLOW'
END MODELS

BEGIN EXCHANGES
END EXCHANGES

BEGIN SOLUTIONGROUP     1
  MXITER     1
  IMS6 'GncTest.ims' 'MODFLOW' 
END SOLUTIONGROUP

