# Output Control file created on 12/6/2023 by ModelMuse version 5.1.1.46.
BEGIN OPTIONS
  BUDGET FILEOUT 'GncTest.cbc'
  HEAD FILEOUT 'GncTest.bhd'
END OPTIONS

BEGIN PERIOD      1
  SAVE HEAD ALL
  PRINT BUDGET ALL
  SAVE BUDGET ALL
END PERIOD 

