# TDIS file created on 12/6/2023 by ModelMuse version 5.1.1.46.

BEGIN OPTIONS
  TIME_UNITS seconds
END OPTIONS

BEGIN DIMENSIONS
  NPER     1
END DIMENSIONS

BEGIN PERIODDATA
    1.000000000000E+000      1  1.000000000000E+000  # perlen nstp tsmult, Stress period      1 Time = -1.000000000000E+000  -  0.000000000000E+000 
END PERIODDATA
