# Name File for MODFLOW created on 12/6/2023 by ModelMuse Version 5.1.1.46
BEGIN OPTIONS
  LIST ..\..\output\output.GncTest\GncTest.lst
  PRINT_INPUT
  SAVE_FLOWS
END OPTIONS

BEGIN PACKAGES
  DISV6        ..\..\model\model.GncTest\GncTest.disv  DISV
  IC6          ..\..\model\model.GncTest\GncTest.ic  IC
  NPF6         ..\..\model\model.GncTest\GncTest.npf  NPF
  GNC6         ..\..\model\model.GncTest\GncTest.gnc  GNC
  OC6          ..\..\model\model.GncTest\GncTest.oc  OC
  CHD6         ..\..\model\model.GncTest\GncTest.chd  CHD-1
END PACKAGES
