# Discretization File created on 12/6/2023 by ModelMuse version 5.1.1.46.
# Number of active cells = 939.
BEGIN OPTIONS
  LENGTH_UNITS METERS
END OPTIONS

BEGIN DIMENSIONS
  NLAY     3
  NCPL   313
  NVERT   371
END DIMENSIONS

BEGIN GRIDDATA
  TOP
    CONSTANT   0.000000000000E+000 
  BOTM LAYERED
    CONSTANT  -1.000000000000E+001 
    CONSTANT  -2.000000000000E+001 
    CONSTANT  -3.000000000000E+001 
  IDOMAIN LAYERED LAYERED IPRN     5
    CONSTANT      1 # IDOMAIN LAYERED 1
    CONSTANT      1 # IDOMAIN LAYERED 2
    CONSTANT      1 # IDOMAIN LAYERED 3
END GRIDDATA

BEGIN VERTICES
      1  0.000000000000E+000   0.000000000000E+000 
      2  1.000000000000E+002   0.000000000000E+000 
      3  2.000000000000E+002   0.000000000000E+000 
      4  3.000000000000E+002   0.000000000000E+000 
      5  4.000000000000E+002   0.000000000000E+000 
      6  5.000000000000E+002   0.000000000000E+000 
      7  6.000000000000E+002   0.000000000000E+000 
      8  7.000000000000E+002   0.000000000000E+000 
      9  8.000000000000E+002   0.000000000000E+000 
     10  9.000000000000E+002   0.000000000000E+000 
     11  1.000000000000E+003   0.000000000000E+000 
     12  0.000000000000E+000  -1.000000000000E+002 
     13  1.000000000000E+002  -1.000000000000E+002 
     14  2.000000000000E+002  -1.000000000000E+002 
     15  3.000000000000E+002  -1.000000000000E+002 
     16  4.000000000000E+002  -1.000000000000E+002 
     17  5.000000000000E+002  -1.000000000000E+002 
     18  6.000000000000E+002  -1.000000000000E+002 
     19  7.000000000000E+002  -1.000000000000E+002 
     20  8.000000000000E+002  -1.000000000000E+002 
     21  9.000000000000E+002  -1.000000000000E+002 
     22  1.000000000000E+003  -1.000000000000E+002 
     23  0.000000000000E+000  -2.000000000000E+002 
     24  1.000000000000E+002  -2.000000000000E+002 
     25  2.000000000000E+002  -2.000000000000E+002 
     26  3.000000000000E+002  -2.000000000000E+002 
     27  4.000000000000E+002  -2.000000000000E+002 
     28  5.000000000000E+002  -2.000000000000E+002 
     29  6.000000000000E+002  -2.000000000000E+002 
     30  7.000000000000E+002  -2.000000000000E+002 
     31  8.000000000000E+002  -2.000000000000E+002 
     32  9.000000000000E+002  -2.000000000000E+002 
     33  1.000000000000E+003  -2.000000000000E+002 
     34  0.000000000000E+000  -3.000000000000E+002 
     35  1.000000000000E+002  -3.000000000000E+002 
     36  2.000000000000E+002  -3.000000000000E+002 
     37  3.000000000000E+002  -3.000000000000E+002 
     38  4.000000000000E+002  -3.000000000000E+002 
     39  5.000000000000E+002  -3.000000000000E+002 
     40  6.000000000000E+002  -3.000000000000E+002 
     41  7.000000000000E+002  -3.000000000000E+002 
     42  8.000000000000E+002  -3.000000000000E+002 
     43  9.000000000000E+002  -3.000000000000E+002 
     44  1.000000000000E+003  -3.000000000000E+002 
     45  0.000000000000E+000  -4.000000000000E+002 
     46  1.000000000000E+002  -4.000000000000E+002 
     47  2.000000000000E+002  -4.000000000000E+002 
     48  3.000000000000E+002  -4.000000000000E+002 
     49  4.000000000000E+002  -4.000000000000E+002 
     50  5.000000000000E+002  -4.000000000000E+002 
     51  6.000000000000E+002  -4.000000000000E+002 
     52  7.000000000000E+002  -4.000000000000E+002 
     53  8.000000000000E+002  -4.000000000000E+002 
     54  9.000000000000E+002  -4.000000000000E+002 
     55  1.000000000000E+003  -4.000000000000E+002 
     56  0.000000000000E+000  -5.000000000000E+002 
     57  1.000000000000E+002  -5.000000000000E+002 
     58  2.000000000000E+002  -5.000000000000E+002 
     59  3.000000000000E+002  -5.000000000000E+002 
     60  4.000000000000E+002  -5.000000000000E+002 
     61  5.000000000000E+002  -5.000000000000E+002 
     62  6.000000000000E+002  -5.000000000000E+002 
     63  7.000000000000E+002  -5.000000000000E+002 
     64  8.000000000000E+002  -5.000000000000E+002 
     65  9.000000000000E+002  -5.000000000000E+002 
     66  1.000000000000E+003  -5.000000000000E+002 
     67  0.000000000000E+000  -6.000000000000E+002 
     68  1.000000000000E+002  -6.000000000000E+002 
     69  2.000000000000E+002  -6.000000000000E+002 
     70  3.000000000000E+002  -6.000000000000E+002 
     71  4.000000000000E+002  -6.000000000000E+002 
     72  5.000000000000E+002  -6.000000000000E+002 
     73  6.000000000000E+002  -6.000000000000E+002 
     74  7.000000000000E+002  -6.000000000000E+002 
     75  8.000000000000E+002  -6.000000000000E+002 
     76  9.000000000000E+002  -6.000000000000E+002 
     77  1.000000000000E+003  -6.000000000000E+002 
     78  0.000000000000E+000  -7.000000000000E+002 
     79  1.000000000000E+002  -7.000000000000E+002 
     80  2.000000000000E+002  -7.000000000000E+002 
     81  3.000000000000E+002  -7.000000000000E+002 
     82  4.000000000000E+002  -7.000000000000E+002 
     83  5.000000000000E+002  -7.000000000000E+002 
     84  6.000000000000E+002  -7.000000000000E+002 
     85  7.000000000000E+002  -7.000000000000E+002 
     86  8.000000000000E+002  -7.000000000000E+002 
     87  9.000000000000E+002  -7.000000000000E+002 
     88  1.000000000000E+003  -7.000000000000E+002 
     89  0.000000000000E+000  -8.000000000000E+002 
     90  1.000000000000E+002  -8.000000000000E+002 
     91  2.000000000000E+002  -8.000000000000E+002 
     92  3.000000000000E+002  -8.000000000000E+002 
     93  4.000000000000E+002  -8.000000000000E+002 
     94  5.000000000000E+002  -8.000000000000E+002 
     95  6.000000000000E+002  -8.000000000000E+002 
     96  7.000000000000E+002  -8.000000000000E+002 
     97  8.000000000000E+002  -8.000000000000E+002 
     98  9.000000000000E+002  -8.000000000000E+002 
     99  1.000000000000E+003  -8.000000000000E+002 
    100  0.000000000000E+000  -9.000000000000E+002 
    101  1.000000000000E+002  -9.000000000000E+002 
    102  2.000000000000E+002  -9.000000000000E+002 
    103  3.000000000000E+002  -9.000000000000E+002 
    104  4.000000000000E+002  -9.000000000000E+002 
    105  5.000000000000E+002  -9.000000000000E+002 
    106  6.000000000000E+002  -9.000000000000E+002 
    107  7.000000000000E+002  -9.000000000000E+002 
    108  8.000000000000E+002  -9.000000000000E+002 
    109  9.000000000000E+002  -9.000000000000E+002 
    110  1.000000000000E+003  -9.000000000000E+002 
    111  0.000000000000E+000  -1.000000000000E+003 
    112  1.000000000000E+002  -1.000000000000E+003 
    113  2.000000000000E+002  -1.000000000000E+003 
    114  3.000000000000E+002  -1.000000000000E+003 
    115  4.000000000000E+002  -1.000000000000E+003 
    116  5.000000000000E+002  -1.000000000000E+003 
    117  6.000000000000E+002  -1.000000000000E+003 
    118  7.000000000000E+002  -1.000000000000E+003 
    119  8.000000000000E+002  -1.000000000000E+003 
    120  9.000000000000E+002  -1.000000000000E+003 
    121  1.000000000000E+003  -1.000000000000E+003 
    122  2.500000000000E+002  -1.000000000000E+002 
    123  2.000000000000E+002  -1.500000000000E+002 
    124  2.500000000000E+002  -1.500000000000E+002 
    125  3.000000000000E+002  -1.500000000000E+002 
    126  2.500000000000E+002  -2.000000000000E+002 
    127  3.500000000000E+002  -1.000000000000E+002 
    128  3.500000000000E+002  -1.500000000000E+002 
    129  4.000000000000E+002  -1.500000000000E+002 
    130  3.500000000000E+002  -2.000000000000E+002 
    131  4.500000000000E+002  -1.000000000000E+002 
    132  4.500000000000E+002  -1.500000000000E+002 
    133  5.000000000000E+002  -1.500000000000E+002 
    134  4.500000000000E+002  -2.000000000000E+002 
    135  5.500000000000E+002  -1.000000000000E+002 
    136  5.500000000000E+002  -1.500000000000E+002 
    137  6.000000000000E+002  -1.500000000000E+002 
    138  5.500000000000E+002  -2.000000000000E+002 
    139  6.500000000000E+002  -1.000000000000E+002 
    140  6.500000000000E+002  -1.500000000000E+002 
    141  7.000000000000E+002  -1.500000000000E+002 
    142  6.500000000000E+002  -2.000000000000E+002 
    143  7.500000000000E+002  -1.000000000000E+002 
    144  7.500000000000E+002  -1.500000000000E+002 
    145  8.000000000000E+002  -1.500000000000E+002 
    146  7.500000000000E+002  -2.000000000000E+002 
    147  1.500000000000E+002  -2.000000000000E+002 
    148  1.000000000000E+002  -2.500000000000E+002 
    149  1.500000000000E+002  -2.500000000000E+002 
    150  2.000000000000E+002  -2.500000000000E+002 
    151  1.500000000000E+002  -3.000000000000E+002 
    152  2.250000000000E+002  -2.000000000000E+002 
    153  2.750000000000E+002  -2.000000000000E+002 
    154  2.000000000000E+002  -2.250000000000E+002 
    155  2.250000000000E+002  -2.250000000000E+002 
    156  2.500000000000E+002  -2.250000000000E+002 
    157  2.750000000000E+002  -2.250000000000E+002 
    158  3.000000000000E+002  -2.250000000000E+002 
    159  2.250000000000E+002  -2.500000000000E+002 
    160  2.500000000000E+002  -2.500000000000E+002 
    161  2.750000000000E+002  -2.500000000000E+002 
    162  3.000000000000E+002  -2.500000000000E+002 
    163  2.000000000000E+002  -2.750000000000E+002 
    164  2.250000000000E+002  -2.750000000000E+002 
    165  2.500000000000E+002  -2.750000000000E+002 
    166  2.750000000000E+002  -2.750000000000E+002 
    167  3.000000000000E+002  -2.750000000000E+002 
    168  2.250000000000E+002  -3.000000000000E+002 
    169  2.500000000000E+002  -3.000000000000E+002 
    170  2.750000000000E+002  -3.000000000000E+002 
    171  3.250000000000E+002  -2.000000000000E+002 
    172  3.750000000000E+002  -2.000000000000E+002 
    173  3.250000000000E+002  -2.250000000000E+002 
    174  3.500000000000E+002  -2.250000000000E+002 
    175  3.750000000000E+002  -2.250000000000E+002 
    176  4.000000000000E+002  -2.250000000000E+002 
    177  3.250000000000E+002  -2.500000000000E+002 
    178  3.500000000000E+002  -2.500000000000E+002 
    179  3.750000000000E+002  -2.500000000000E+002 
    180  4.000000000000E+002  -2.500000000000E+002 
    181  3.250000000000E+002  -2.750000000000E+002 
    182  3.500000000000E+002  -2.750000000000E+002 
    183  3.750000000000E+002  -2.750000000000E+002 
    184  4.000000000000E+002  -2.750000000000E+002 
    185  3.250000000000E+002  -3.000000000000E+002 
    186  3.500000000000E+002  -3.000000000000E+002 
    187  3.750000000000E+002  -3.000000000000E+002 
    188  4.250000000000E+002  -2.000000000000E+002 
    189  4.750000000000E+002  -2.000000000000E+002 
    190  4.250000000000E+002  -2.250000000000E+002 
    191  4.500000000000E+002  -2.250000000000E+002 
    192  4.750000000000E+002  -2.250000000000E+002 
    193  5.000000000000E+002  -2.250000000000E+002 
    194  4.250000000000E+002  -2.500000000000E+002 
    195  4.500000000000E+002  -2.500000000000E+002 
    196  4.750000000000E+002  -2.500000000000E+002 
    197  5.000000000000E+002  -2.500000000000E+002 
    198  4.250000000000E+002  -2.750000000000E+002 
    199  4.500000000000E+002  -2.750000000000E+002 
    200  4.750000000000E+002  -2.750000000000E+002 
    201  5.000000000000E+002  -2.750000000000E+002 
    202  4.250000000000E+002  -3.000000000000E+002 
    203  4.500000000000E+002  -3.000000000000E+002 
    204  4.750000000000E+002  -3.000000000000E+002 
    205  5.250000000000E+002  -2.000000000000E+002 
    206  5.750000000000E+002  -2.000000000000E+002 
    207  5.250000000000E+002  -2.250000000000E+002 
    208  5.500000000000E+002  -2.250000000000E+002 
    209  5.750000000000E+002  -2.250000000000E+002 
    210  6.000000000000E+002  -2.250000000000E+002 
    211  5.250000000000E+002  -2.500000000000E+002 
    212  5.500000000000E+002  -2.500000000000E+002 
    213  5.750000000000E+002  -2.500000000000E+002 
    214  6.000000000000E+002  -2.500000000000E+002 
    215  5.250000000000E+002  -2.750000000000E+002 
    216  5.500000000000E+002  -2.750000000000E+002 
    217  5.750000000000E+002  -2.750000000000E+002 
    218  6.000000000000E+002  -2.750000000000E+002 
    219  5.250000000000E+002  -3.000000000000E+002 
    220  5.500000000000E+002  -3.000000000000E+002 
    221  5.750000000000E+002  -3.000000000000E+002 
    222  6.250000000000E+002  -2.000000000000E+002 
    223  6.750000000000E+002  -2.000000000000E+002 
    224  6.250000000000E+002  -2.250000000000E+002 
    225  6.500000000000E+002  -2.250000000000E+002 
    226  6.750000000000E+002  -2.250000000000E+002 
    227  7.000000000000E+002  -2.250000000000E+002 
    228  6.250000000000E+002  -2.500000000000E+002 
    229  6.500000000000E+002  -2.500000000000E+002 
    230  6.750000000000E+002  -2.500000000000E+002 
    231  7.000000000000E+002  -2.500000000000E+002 
    232  6.250000000000E+002  -2.750000000000E+002 
    233  6.500000000000E+002  -2.750000000000E+002 
    234  6.750000000000E+002  -2.750000000000E+002 
    235  7.000000000000E+002  -2.750000000000E+002 
    236  6.250000000000E+002  -3.000000000000E+002 
    237  6.500000000000E+002  -3.000000000000E+002 
    238  6.750000000000E+002  -3.000000000000E+002 
    239  7.250000000000E+002  -2.000000000000E+002 
    240  7.750000000000E+002  -2.000000000000E+002 
    241  7.250000000000E+002  -2.250000000000E+002 
    242  7.500000000000E+002  -2.250000000000E+002 
    243  7.750000000000E+002  -2.250000000000E+002 
    244  8.000000000000E+002  -2.250000000000E+002 
    245  7.250000000000E+002  -2.500000000000E+002 
    246  7.500000000000E+002  -2.500000000000E+002 
    247  7.750000000000E+002  -2.500000000000E+002 
    248  8.000000000000E+002  -2.500000000000E+002 
    249  7.250000000000E+002  -2.750000000000E+002 
    250  7.500000000000E+002  -2.750000000000E+002 
    251  7.750000000000E+002  -2.750000000000E+002 
    252  8.000000000000E+002  -2.750000000000E+002 
    253  7.250000000000E+002  -3.000000000000E+002 
    254  7.500000000000E+002  -3.000000000000E+002 
    255  7.750000000000E+002  -3.000000000000E+002 
    256  8.500000000000E+002  -2.000000000000E+002 
    257  8.500000000000E+002  -2.500000000000E+002 
    258  9.000000000000E+002  -2.500000000000E+002 
    259  8.500000000000E+002  -3.000000000000E+002 
    260  2.000000000000E+002  -3.500000000000E+002 
    261  2.500000000000E+002  -3.500000000000E+002 
    262  3.000000000000E+002  -3.500000000000E+002 
    263  2.500000000000E+002  -4.000000000000E+002 
    264  3.500000000000E+002  -3.500000000000E+002 
    265  4.000000000000E+002  -3.500000000000E+002 
    266  3.500000000000E+002  -4.000000000000E+002 
    267  4.500000000000E+002  -3.500000000000E+002 
    268  5.000000000000E+002  -3.500000000000E+002 
    269  4.500000000000E+002  -4.000000000000E+002 
    270  5.500000000000E+002  -3.500000000000E+002 
    271  6.000000000000E+002  -3.500000000000E+002 
    272  5.500000000000E+002  -4.000000000000E+002 
    273  6.500000000000E+002  -3.500000000000E+002 
    274  7.000000000000E+002  -3.500000000000E+002 
    275  6.500000000000E+002  -4.000000000000E+002 
    276  7.000000000000E+002  -3.250000000000E+002 
    277  7.250000000000E+002  -3.250000000000E+002 
    278  7.500000000000E+002  -3.250000000000E+002 
    279  7.750000000000E+002  -3.250000000000E+002 
    280  8.000000000000E+002  -3.250000000000E+002 
    281  7.250000000000E+002  -3.500000000000E+002 
    282  7.500000000000E+002  -3.500000000000E+002 
    283  7.750000000000E+002  -3.500000000000E+002 
    284  8.000000000000E+002  -3.500000000000E+002 
    285  7.000000000000E+002  -3.750000000000E+002 
    286  7.250000000000E+002  -3.750000000000E+002 
    287  7.500000000000E+002  -3.750000000000E+002 
    288  7.750000000000E+002  -3.750000000000E+002 
    289  8.000000000000E+002  -3.750000000000E+002 
    290  7.250000000000E+002  -4.000000000000E+002 
    291  7.500000000000E+002  -4.000000000000E+002 
    292  7.750000000000E+002  -4.000000000000E+002 
    293  8.500000000000E+002  -3.500000000000E+002 
    294  9.000000000000E+002  -3.500000000000E+002 
    295  8.500000000000E+002  -4.000000000000E+002 
    296  6.000000000000E+002  -4.500000000000E+002 
    297  6.500000000000E+002  -4.500000000000E+002 
    298  7.000000000000E+002  -4.500000000000E+002 
    299  6.500000000000E+002  -5.000000000000E+002 
    300  7.000000000000E+002  -4.250000000000E+002 
    301  7.250000000000E+002  -4.250000000000E+002 
    302  7.500000000000E+002  -4.250000000000E+002 
    303  7.750000000000E+002  -4.250000000000E+002 
    304  8.000000000000E+002  -4.250000000000E+002 
    305  7.250000000000E+002  -4.500000000000E+002 
    306  7.500000000000E+002  -4.500000000000E+002 
    307  7.750000000000E+002  -4.500000000000E+002 
    308  8.000000000000E+002  -4.500000000000E+002 
    309  7.000000000000E+002  -4.750000000000E+002 
    310  7.250000000000E+002  -4.750000000000E+002 
    311  7.500000000000E+002  -4.750000000000E+002 
    312  7.750000000000E+002  -4.750000000000E+002 
    313  8.000000000000E+002  -4.750000000000E+002 
    314  7.250000000000E+002  -5.000000000000E+002 
    315  7.500000000000E+002  -5.000000000000E+002 
    316  7.750000000000E+002  -5.000000000000E+002 
    317  8.500000000000E+002  -4.500000000000E+002 
    318  9.000000000000E+002  -4.500000000000E+002 
    319  8.500000000000E+002  -5.000000000000E+002 
    320  6.000000000000E+002  -5.500000000000E+002 
    321  6.500000000000E+002  -5.500000000000E+002 
    322  7.000000000000E+002  -5.500000000000E+002 
    323  6.500000000000E+002  -6.000000000000E+002 
    324  7.000000000000E+002  -5.250000000000E+002 
    325  7.250000000000E+002  -5.250000000000E+002 
    326  7.500000000000E+002  -5.250000000000E+002 
    327  7.750000000000E+002  -5.250000000000E+002 
    328  8.000000000000E+002  -5.250000000000E+002 
    329  7.250000000000E+002  -5.500000000000E+002 
    330  7.500000000000E+002  -5.500000000000E+002 
    331  7.750000000000E+002  -5.500000000000E+002 
    332  8.000000000000E+002  -5.500000000000E+002 
    333  7.000000000000E+002  -5.750000000000E+002 
    334  7.250000000000E+002  -5.750000000000E+002 
    335  7.500000000000E+002  -5.750000000000E+002 
    336  7.750000000000E+002  -5.750000000000E+002 
    337  8.000000000000E+002  -5.750000000000E+002 
    338  7.250000000000E+002  -6.000000000000E+002 
    339  7.500000000000E+002  -6.000000000000E+002 
    340  7.750000000000E+002  -6.000000000000E+002 
    341  8.500000000000E+002  -5.500000000000E+002 
    342  9.000000000000E+002  -5.500000000000E+002 
    343  8.500000000000E+002  -6.000000000000E+002 
    344  6.000000000000E+002  -6.500000000000E+002 
    345  6.500000000000E+002  -6.500000000000E+002 
    346  7.000000000000E+002  -6.500000000000E+002 
    347  6.500000000000E+002  -7.000000000000E+002 
    348  7.000000000000E+002  -6.250000000000E+002 
    349  7.250000000000E+002  -6.250000000000E+002 
    350  7.500000000000E+002  -6.250000000000E+002 
    351  7.750000000000E+002  -6.250000000000E+002 
    352  8.000000000000E+002  -6.250000000000E+002 
    353  7.250000000000E+002  -6.500000000000E+002 
    354  7.500000000000E+002  -6.500000000000E+002 
    355  7.750000000000E+002  -6.500000000000E+002 
    356  8.000000000000E+002  -6.500000000000E+002 
    357  7.000000000000E+002  -6.750000000000E+002 
    358  7.250000000000E+002  -6.750000000000E+002 
    359  7.500000000000E+002  -6.750000000000E+002 
    360  7.750000000000E+002  -6.750000000000E+002 
    361  8.000000000000E+002  -6.750000000000E+002 
    362  7.250000000000E+002  -7.000000000000E+002 
    363  7.500000000000E+002  -7.000000000000E+002 
    364  7.750000000000E+002  -7.000000000000E+002 
    365  8.500000000000E+002  -6.500000000000E+002 
    366  9.000000000000E+002  -6.500000000000E+002 
    367  8.500000000000E+002  -7.000000000000E+002 
    368  7.000000000000E+002  -7.500000000000E+002 
    369  7.500000000000E+002  -7.500000000000E+002 
    370  8.000000000000E+002  -7.500000000000E+002 
    371  7.500000000000E+002  -8.000000000000E+002 
END VERTICES

BEGIN CELL2D
      1  5.000000000000E+001  -5.000000000000E+001      4     1     2    13    12
      2  1.500000000000E+002  -5.000000000000E+001      4     2     3    14    13
      3  2.500000000000E+002  -5.000000000000E+001      5     3     4    15   122    14
      4  3.500000000000E+002  -5.000000000000E+001      5     4     5    16   127    15
      5  4.500000000000E+002  -5.000000000000E+001      5     5     6    17   131    16
      6  5.500000000000E+002  -5.000000000000E+001      5     6     7    18   135    17
      7  6.500000000000E+002  -5.000000000000E+001      5     7     8    19   139    18
      8  7.500000000000E+002  -5.000000000000E+001      5     8     9    20   143    19
      9  8.500000000000E+002  -5.000000000000E+001      4     9    10    21    20
     10  9.500000000000E+002  -5.000000000000E+001      4    10    11    22    21
     11  5.000000000000E+001  -1.500000000000E+002      4    12    13    24    23
     12  1.500000000000E+002  -1.500000000000E+002      6    13    14   123    25   147    24
     13  2.250000000000E+002  -1.250000000000E+002      4    14   122   124   123
     14  2.750000000000E+002  -1.250000000000E+002      4   122    15   125   124
     15  2.250000000000E+002  -1.750000000000E+002      5   123   124   126   152    25
     16  2.750000000000E+002  -1.750000000000E+002      5   124   125    26   153   126
     17  3.250000000000E+002  -1.250000000000E+002      4    15   127   128   125
     18  3.750000000000E+002  -1.250000000000E+002      4   127    16   129   128
     19  3.250000000000E+002  -1.750000000000E+002      5   125   128   130   171    26
     20  3.750000000000E+002  -1.750000000000E+002      5   128   129    27   172   130
     21  4.250000000000E+002  -1.250000000000E+002      4    16   131   132   129
     22  4.750000000000E+002  -1.250000000000E+002      4   131    17   133   132
     23  4.250000000000E+002  -1.750000000000E+002      5   129   132   134   188    27
     24  4.750000000000E+002  -1.750000000000E+002      5   132   133    28   189   134
     25  5.250000000000E+002  -1.250000000000E+002      4    17   135   136   133
     26  5.750000000000E+002  -1.250000000000E+002      4   135    18   137   136
     27  5.250000000000E+002  -1.750000000000E+002      5   133   136   138   205    28
     28  5.750000000000E+002  -1.750000000000E+002      5   136   137    29   206   138
     29  6.250000000000E+002  -1.250000000000E+002      4    18   139   140   137
     30  6.750000000000E+002  -1.250000000000E+002      4   139    19   141   140
     31  6.250000000000E+002  -1.750000000000E+002      5   137   140   142   222    29
     32  6.750000000000E+002  -1.750000000000E+002      5   140   141    30   223   142
     33  7.250000000000E+002  -1.250000000000E+002      4    19   143   144   141
     34  7.750000000000E+002  -1.250000000000E+002      4   143    20   145   144
     35  7.250000000000E+002  -1.750000000000E+002      5   141   144   146   239    30
     36  7.750000000000E+002  -1.750000000000E+002      5   144   145    31   240   146
     37  8.500000000000E+002  -1.500000000000E+002      6    20    21    32   256    31   145
     38  9.500000000000E+002  -1.500000000000E+002      4    21    22    33    32
     39  5.000000000000E+001  -2.500000000000E+002      5    23    24   148    35    34
     40  1.250000000000E+002  -2.250000000000E+002      4    24   147   149   148
     41  1.750000000000E+002  -2.250000000000E+002      5   147    25   154   150   149
     42  1.250000000000E+002  -2.750000000000E+002      4   148   149   151    35
     43  1.750000000000E+002  -2.750000000000E+002      5   149   150   163    36   151
     44  2.125000000000E+002  -2.125000000000E+002      4    25   152   155   154
     45  2.375000000000E+002  -2.125000000000E+002      4   152   126   156   155
     46  2.625000000000E+002  -2.125000000000E+002      4   126   153   157   156
     47  2.875000000000E+002  -2.125000000000E+002      4   153    26   158   157
     48  2.125000000000E+002  -2.375000000000E+002      4   154   155   159   150
     49  2.375000000000E+002  -2.375000000000E+002      4   155   156   160   159
     50  2.625000000000E+002  -2.375000000000E+002      4   156   157   161   160
     51  2.875000000000E+002  -2.375000000000E+002      4   157   158   162   161
     52  2.125000000000E+002  -2.625000000000E+002      4   150   159   164   163
     53  2.375000000000E+002  -2.625000000000E+002      4   159   160   165   164
     54  2.625000000000E+002  -2.625000000000E+002      4   160   161   166   165
     55  2.875000000000E+002  -2.625000000000E+002      4   161   162   167   166
     56  2.125000000000E+002  -2.875000000000E+002      4   163   164   168    36
     57  2.375000000000E+002  -2.875000000000E+002      4   164   165   169   168
     58  2.625000000000E+002  -2.875000000000E+002      4   165   166   170   169
     59  2.875000000000E+002  -2.875000000000E+002      4   166   167    37   170
     60  3.125000000000E+002  -2.125000000000E+002      4    26   171   173   158
     61  3.375000000000E+002  -2.125000000000E+002      4   171   130   174   173
     62  3.625000000000E+002  -2.125000000000E+002      4   130   172   175   174
     63  3.875000000000E+002  -2.125000000000E+002      4   172    27   176   175
     64  3.125000000000E+002  -2.375000000000E+002      4   158   173   177   162
     65  3.375000000000E+002  -2.375000000000E+002      4   173   174   178   177
     66  3.625000000000E+002  -2.375000000000E+002      4   174   175   179   178
     67  3.875000000000E+002  -2.375000000000E+002      4   175   176   180   179
     68  3.125000000000E+002  -2.625000000000E+002      4   162   177   181   167
     69  3.375000000000E+002  -2.625000000000E+002      4   177   178   182   181
     70  3.625000000000E+002  -2.625000000000E+002      4   178   179   183   182
     71  3.875000000000E+002  -2.625000000000E+002      4   179   180   184   183
     72  3.125000000000E+002  -2.875000000000E+002      4   167   181   185    37
     73  3.375000000000E+002  -2.875000000000E+002      4   181   182   186   185
     74  3.625000000000E+002  -2.875000000000E+002      4   182   183   187   186
     75  3.875000000000E+002  -2.875000000000E+002      4   183   184    38   187
     76  4.125000000000E+002  -2.125000000000E+002      4    27   188   190   176
     77  4.375000000000E+002  -2.125000000000E+002      4   188   134   191   190
     78  4.625000000000E+002  -2.125000000000E+002      4   134   189   192   191
     79  4.875000000000E+002  -2.125000000000E+002      4   189    28   193   192
     80  4.125000000000E+002  -2.375000000000E+002      4   176   190   194   180
     81  4.375000000000E+002  -2.375000000000E+002      4   190   191   195   194
     82  4.625000000000E+002  -2.375000000000E+002      4   191   192   196   195
     83  4.875000000000E+002  -2.375000000000E+002      4   192   193   197   196
     84  4.125000000000E+002  -2.625000000000E+002      4   180   194   198   184
     85  4.375000000000E+002  -2.625000000000E+002      4   194   195   199   198
     86  4.625000000000E+002  -2.625000000000E+002      4   195   196   200   199
     87  4.875000000000E+002  -2.625000000000E+002      4   196   197   201   200
     88  4.125000000000E+002  -2.875000000000E+002      4   184   198   202    38
     89  4.375000000000E+002  -2.875000000000E+002      4   198   199   203   202
     90  4.625000000000E+002  -2.875000000000E+002      4   199   200   204   203
     91  4.875000000000E+002  -2.875000000000E+002      4   200   201    39   204
     92  5.125000000000E+002  -2.125000000000E+002      4    28   205   207   193
     93  5.375000000000E+002  -2.125000000000E+002      4   205   138   208   207
     94  5.625000000000E+002  -2.125000000000E+002      4   138   206   209   208
     95  5.875000000000E+002  -2.125000000000E+002      4   206    29   210   209
     96  5.125000000000E+002  -2.375000000000E+002      4   193   207   211   197
     97  5.375000000000E+002  -2.375000000000E+002      4   207   208   212   211
     98  5.625000000000E+002  -2.375000000000E+002      4   208   209   213   212
     99  5.875000000000E+002  -2.375000000000E+002      4   209   210   214   213
    100  5.125000000000E+002  -2.625000000000E+002      4   197   211   215   201
    101  5.375000000000E+002  -2.625000000000E+002      4   211   212   216   215
    102  5.625000000000E+002  -2.625000000000E+002      4   212   213   217   216
    103  5.875000000000E+002  -2.625000000000E+002      4   213   214   218   217
    104  5.125000000000E+002  -2.875000000000E+002      4   201   215   219    39
    105  5.375000000000E+002  -2.875000000000E+002      4   215   216   220   219
    106  5.625000000000E+002  -2.875000000000E+002      4   216   217   221   220
    107  5.875000000000E+002  -2.875000000000E+002      4   217   218    40   221
    108  6.125000000000E+002  -2.125000000000E+002      4    29   222   224   210
    109  6.375000000000E+002  -2.125000000000E+002      4   222   142   225   224
    110  6.625000000000E+002  -2.125000000000E+002      4   142   223   226   225
    111  6.875000000000E+002  -2.125000000000E+002      4   223    30   227   226
    112  6.125000000000E+002  -2.375000000000E+002      4   210   224   228   214
    113  6.375000000000E+002  -2.375000000000E+002      4   224   225   229   228
    114  6.625000000000E+002  -2.375000000000E+002      4   225   226   230   229
    115  6.875000000000E+002  -2.375000000000E+002      4   226   227   231   230
    116  6.125000000000E+002  -2.625000000000E+002      4   214   228   232   218
    117  6.375000000000E+002  -2.625000000000E+002      4   228   229   233   232
    118  6.625000000000E+002  -2.625000000000E+002      4   229   230   234   233
    119  6.875000000000E+002  -2.625000000000E+002      4   230   231   235   234
    120  6.125000000000E+002  -2.875000000000E+002      4   218   232   236    40
    121  6.375000000000E+002  -2.875000000000E+002      4   232   233   237   236