# GNC: Ghost-Node Correction package file created on 12/6/2023 by ModelMuse version 5.1.1.46.
BEGIN OPTIONS
    PRINT_INPUT
END OPTIONS

BEGIN DIMENSIONS
  NUMGNC   444
  NUMALPHAJ     3
END DIMENSIONS

BEGIN GNCDATA
      1     3        1    13        1     2        0     0        0     0     2.500000000000E-001   0.000000000000E+000   0.000000000000E+000 
      1     3        1    14        1     4        0     0        0     0     2.500000000000E-001   0.000000000000E+000   0.000000000000E+000 
      1     4        1    17        1     3        0     0        0     0     2.500000000000E-001   0.000000000000E+000   0.000000000000E+000 
      1     4        1    18        1     5        0     0        0     0     2.500000000000E-001   0.000000000000E+000   0.000000000000E+000 
      1     5        1    21        1     4        0     0        0     0     2.500000000000E-001   0.000000000000E+000   0.000000000000E+000 
      1     5        1    22        1     6        0     0        0     0     2.500000000000E-001   0.000000000000E+000   0.000000000000E+000 
      1     6        1    25        1     5        0     0        0     0     2.500000000000E-001   0.000000000000E+000   0.000000000000E+000 
      1     6        1    26        1     7        0     0        0     0     2.500000000000E-001   0.000000000000E+000   0.000000000000E+000 
      1     7        1    29        1     6        0     0        0     0     2.500000000000E-001   0.000000000000E+000   0.000000000000E+000 
      1     7        1    30        1     8        0     0        0     0     2.500000000000E-001   0.000000000000E+000   0.000000000000E+000 
      1     8        1    33        1     7        0     0        0     0     2.500000000000E-001   0.000000000000E+000   0.000000000000E+000 
      1     8        1    34        1     9        0     0        0     0     2.500000000000E-001   0.000000000000E+000   0.000000000000E+000 
      1    12        1    40        1    11        0     0        0     0     2.500000000000E-001   0.000000000000E+000   0.000000000000E+000 
      1    12        1    41        1    15        1    13        0     0     1.666666666667E-001   1.666666666667E-001   0.000000000000E+000 
      1    12        1    13        1     2        0     0        0     0     2.500000000000E-001   0.000000000000E+000   0.000000000000E+000 
      1    12        1    15        1    41        1    40        0     0     1.666666666667E-001   1.666666666667E-001   0.000000000000E+000 
      1    15        1    44        1    40        1    41        1    12     5.555555555556E-002   5.555555555556E-002   5.555555555556E-002 
      1    16        1    46        1    15        0     0        0     0     2.500000000000E-001   0.000000000000E+000   0.000000000000E+000 
      1    15        1    45        1    16        0     0        0     0     2.500000000000E-001   0.000000000000E+000   0.000000000000E+000 
      1    16        1    47        1    19        0     0        0     0     2.500000000000E-001   0.000000000000E+000   0.000000000000E+000 
      1    19        1    60        1    14        0     0        0     0     2.500000000000E-001   0.000000000000E+000   0.000000000000E+000 
      1    20        1    62        1    19        0     0        0     0     2.500000000000E-001   0.000000000000E+000   0.000000000000E+000 
      1    19        1    61        1    20        0     0        0     0     2.500000000000E-001   0.000000000000E+000   0.000000000000E+000 
      1    20        1    63        1    23        0     0        0     0     2.500000000000E-001   0.000000000000E+000   0.000000000000E+000 
      1    23        1    76        1    18        0     0        0     0     2.500000000000E-001   0.000000000000E+000   0.000000000000E+000 
      1    24        1    78        1    23        0     0        0     0     2.500000000000E-001   0.000000000000E+000   0.000000000000E+000 
      1    23        1    77        1    24        0     0        0     0     2.500000000000E-001   0.000000000000E+000   0.000000000000E+000 
      1    24        1    79        1    27        0     0        0     0     2.500000000000E-001   0.000000000000E+000   0.000000000000E+000 
      1    27        1    92        1    22        0     0        0     0     2.500000000000E-001   0.000000000000E+000   0.000000000000E+000 
      1    28        1    94        1    27        0     0        0     0     2.500000000000E-001   0.000000000000E+000   0.000000000000E+000 
      1    27        1    93        1    28        0     0        0     0     2.500000000000E-001   0.000000000000E+000   0.000000000000E+000 
      1    28        1    95        1    31        0     0        0     0     2.500000000000E-001   0.000000000000E+000   0.000000000000E+000 
      1    31        1   108        1    26        0     0        0     0     2.500000000000E-001   0.000000000000E+000   0.000000000000E+000 
      1    32        1   110        1    31        0     0        0     0     2.500000000000E-001   0.000000000000E+000   0.000000000000E+000 
      1    31        1   109        1    32        0     0        0     0     2.500000000000E-001   0.000000000000E+000   0.000000000000E+000 
      1    32        1   111        1    35        0     0        0     0     2.500000000000E-001   0.000000000000E+000   0.000000000000E+000 
      1    35        1   124        1    30        0     0        0     0     2.500000000000E-001   0.000000000000E+000   0.000000000000E+000 
      1    36        1   126        1    35        0     0        0     0     2.500000000000E-001   0.000000000000E+000   0.000000000000E+000 
      1    35        1   125        1    36        0     0        0     0     2.500000000000E-001   0.000000000000E+000   0.000000000000E+000 
      1    36        1   127        1   140        1   141        1    37     5.555555555556E-002   5.555555555556E-002   5.555555555556E-002 
      1    37        1   140        1    36        1    34        0     0     1.666666666667E-001   1.666666666667E-001   0.000000000000E+000 
      1    37        1   141        1    38        0     0        0     0     2.500000000000E-001   0.000000000000E+000   0.000000000000E+000 
      1    37        1    34        1     9        0     0        0     0     2.500000000000E-001   0.000000000000E+000   0.000000000000E+000 
      1    37        1    36        1   141        1   140        0     0     1.666666666667E-001   1.666666666667E-001   0.000000000000E+000 
      1    39        1    40        1    11        0     0        0     0     2.500000000000E-001   0.000000000000E+000   0.000000000000E+000 
      1    39        1    42        1   145        0     0        0     0     2.500000000000E-001   0.000000000000E+000   0.000000000000E+000 
      1    41        1    44        1    13        1    15        1    12     5.555555555556E-002   5.555555555556E-002   5.555555555556E-002 
      1    43        1    52        1    41        0     0        0     0     2.500000000000E-001   0.000000000000E+000   0.000000000000E+000 
      1    41        1    48        1    43        0     0        0     0     2.500000000000E-001   0.000000000000E+000   0.000000000000E+000 
      1    43        1    56        1   147        1   149        1   146     5.555555555556E-002   5.555555555556E-002   5.555555555556E-002 
      1   140        1   127        1    34        1    36        1    37     5.555555555556E-002   5.555555555556E-002   5.555555555556E-002 
      1   142        1   135        1   140        0     0        0     0     2.500000000000E-001   0.000000000000E+000   0.000000000000E+000 
      1   140        1   131        1   142        0     0        0     0     2.500000000000E-001   0.000000000000E+000   0.000000000000E+000 
      1   142        1   139        1   183        0     0        0     0     2.500000000000E-001   0.000000000000E+000   0.000000000000E+000 
      1   144        1   141        1    38        0     0        0     0     2.500000000000E-001   0.000000000000E+000   0.000000000000E+000 
      1   144        1   143        1   187        0     0        0     0     2.500000000000E-001   0.000000000000E+000   0.000000000000E+000 
      1   146        1    42        1   145        0     0        0     0     2.500000000000E-001   0.000000000000E+000   0.000000000000E+000 
      1   146        1    43        1   149        1   147        0     0     1.666666666667E-001   1.666666666667E-001   0.000000000000E+000 
      1   146        1   147        1    43        1    42        0     0     1.666666666667E-001   1.666666666667E-001   0.000000000000E+000 
      1   146        1   149        1   189        0     0        0     0     2.500000000000E-001   0.000000000000E+000   0.000000000000E+000 
      1   147        1    56        1    42        1    43        1   146     5.555555555556E-002   5.555555555556E-002   5.555555555556E-002 
      1   148        1    58        1   147        0     0        0     0     2.500000000000E-001   0.000000000000E+000   0.000000000000E+000 
      1   147        1    57        1   148        0     0        0     0     2.500000000000E-001   0.000000000000E+000   0.000000000000E+000 
      1   148        1    59        1   151        0     0        0     0     2.500000000000E-001   0.000000000000E+000   0.000000000000E+000 
      1   151        1    72        1   148        0     0        0     0     2.500000000000E-001   0.000000000000E+000   0.000000000000E+000 
      1   152        1    74        1   151        0     0        0     0     2.500000000000E-001   0.000000000000E+000   0.000000000000E+000 
      1   151        1    73        1   152        0     0        0     0     2.500000000000E-001   0.000000000000E+000   0.000000000000E+000 
      1   152        1    75        1   155        0     0        0     0     2.500000000000E-001   0.000000000000E+000   0.000000000000E+000 
      1   155        1    88        1   152        0     0        0     0     2.500000000000E-001   0.000000000000E+000   0.000000000000E+000 
      1   156        1    90        1   155        0     0        0     0     2.500000000000E-001   0.000000000000E+000   0.000000000000E+000 
      1   155        1    89        1   156        0     0        0     0     2.500000000000E-001   0.000000000000E+000   0.000000000000E+000 
      1   156        1    91        1   159        0     0        0     0     2.500000000000E-001   0.000000000000E+000   0.000000000000E+000 
      1   159        1   104        1   156        0     0        0     0     2.500000000000E-001   0.000000000000E+000   0.000000000000E+000 
      1   160        1   106        1   159        0     0        0     0     2.500000000000E-001   0.000000000000E+000   0.000000000000E+000 
      1   159        1   105        1   160        0     0        0     0     2.500000000000E-001   0.000000000000E+000   0.000000000000E+000 
      1   160        1   107        1   163        0     0        0     0     2.500000000000E-001   0.000000000000E+000   0.000000000000E+000 
      1   163        1   120        1   160        0     0        0     0     2.500000000000E-001   0.000000000000E+000   0.000000000000E+000 
      1   164        1   122        1   163        0     0        0     0     2.500000000000E-001   0.000000000000E+000   0.000000000000E+000 
      1   163        1   121        1   164        0     0        0     0     2.500000000000E-001   0.000000000000E+000   0.000000000000E+000 
      1   164        1   123        1   171        1   167        0     0     1.666666666667E-001   1.666666666667E-001   0.000000000000E+000 
      1   164        1   167        1   123        1   122        0     0     1.666666666667E-001   1.666666666667E-001   0.000000000000E+000 
      1   166        1   175        1   164        0     0        0     0     2.500000000000E-001   0.000000000000E+000   0.000000000000E+000 
      1   164        1   171        1   166        0     0        0     0     2.500000000000E-001   0.000000000000E+000   0.000000000000E+000 
      1   166        1   179        1   195        0     0        0     0     2.500000000000E-001   0.000000000000E+000   0.000000000000E+000 
      1   183        1   170        1   142        0     0        0     0     2.500000000000E-001   0.000000000000E+000   0.000000000000E+000 
      1   185        1   178        1   183        0     0        0     0     2.500000000000E-001   0.000000000000E+000   0.000000000000E+000 
      1   183        1   174        1   185        0     0        0     0     2.500000000000E-001   0.000000000000E+000   0.000000000000E+000 
      1   185        1   182        1   214        0     0        0     0     2.500000000000E-001   0.000000000000E+000   0.000000000000E+000 
      1   187        1   184        1   144        0     0        0     0     2.500000000000E-001   0.000000000000E+000   0.000000000000E+000 
      1   187        1   186        1   218        0     0        0     0     2.500000000000E-001   0.000000000000E+000   0.000000000000E+000 
      1   190        1   149        1   189        0     0        0     0     2.500000000000E-001   0.000000000000E+000   0.000000000000E+000 
      1   190        1   150        1   191        0     0        0     0     2.500000000000E-001   0.000000000000E+000   0.000000000000E+000 
      1   191        1   153        1   190        0     0        0     0     2.500000000000E-001   0.000000000000E+000   0.000000000000E+000 
      1   191        1   154        1   192        0     0        0     0     2.500000000000E-001   0.000000000000E+000   0.000000000000E+000 
      1   192        1   157        1   191        0     0        0     0     2.500000000000E-001   0.000000000000E+000   0.000000000000E+000 
      1   192        1   158        1   193        0     0        0     0     2.500000000000E-001   0.000000000000E+000   0.000000000000E+000 
      1   193        1   161        1   192        0     0        0     0     2.500000000000E-001   0.000000000000E+000   0.000000000000E+000 
      1   193        1   162        1   196        1   194        0     0     1.666666666667E-001   1.666666666667E-001   0.000000000000E+000 
      1   193        1   194        1   162        1   161        0     0     1.666666666667E-001   1.666666666667E-001   0.000000000000E+000 
      1   193        1   196        1   224        0     0        0     0     2.500000000000E-001   0.000000000000E+000   0.000000000000E+000 
      1   195        1   198        1   166        0     0        0     0     2.500000000000E-001   0.000000000000E+000   0.000000000000E+000 
      1   197        1   206        1   195        0     0        0     0     2.500000000000E-001   0.000000000000E+000   0.000000000000E+000 
      1   195        1   202        1   197        0     0        0     0     2.500000000000E-001   0.000000000000E+000   0.000000000000E+000 
      1   197        1   210        1   226        0     0        0     0     2.500000000000E-001   0.000000000000E+000   0.000000000000E+000 
      1   214        1   201        1   185        0     0        0     0     2.500000000000E-001   0.000000000000E+000   0.000000000000E+000 
      1   216        1   209        1   214        0     0        0     0     2.500000000000E-001   0.000000000000E+000   0.000000000000E+000 
      1   214        1   205        1   216        0     0        0     0     2.500000000000E-001   0.000000000000E+000   0.000000000000E+000 
      1   216        1   213        1   245        0     0        0     0     2.500000000000E-001   0.000000000000E+000   0.000000000000E+000 
      1   218        1   215        1   187        0     0        0     0     2.500000000000E-001   0.000000000000E+000   0.000000000000E+000 
      1   218        1   217        1   249        0     0        0     0     2.500000000000E-001   0.000000000000E+000   0.000000000000E+000 
      1   224        1   225        1   193        0     0        0     0     2.500000000000E-001   0.000000000000E+000   0.000000000000E+000 
      1   224        1   227        1   255        0     0        0     0     2.500000000000E-001   0.000000000000E+000   0.000000000000E+000 
      1   226        1   229        1   197        0     0        0     0     2.500000000000E-001   0.000000000000E+000   0.000000000000E+000 
      1   228        1   237        1   226        0     0        0     0     2.500000000000E-001   0.000000000000E+000   0.000000000000E+000 
      1   226        1   233        1   228        0     0        0     0     2.500000000000E-001   0.000000000000E+000   0.000000000000E+000 
      1   228        1   241        1   257        0     0        0     0     2.500000000000E-001   0.000000000000E+000   0.000000000000E+000 
      1   245        1   232        1   216        0     0        0     0     2.500000000000E-001   0.000000000000E+000   0.000000000000E+000 
      1   247        1   240        1   245        0     0        0     0     2.500000000000E-001   0.000000000000E+000   0.000000000000E+000 
      1   245        1   236        1   247        0     0        0     0     2.500000000000E-001   0.000000000000E+000   0.000000000000E+000 
      1   247        1   244        1   276        0     0        0     0     2.500000000000E-001   0.000000000000E+000   0.000000000000E+000 
      1   249        1   246        1   218        0     0        0     0     2.500000000000E-001   0.000000000000E+000   0.000000000000E+000 
      1   249        1   248        1   280        0     0        0     0     2.500000000000E-001   0.000000000000E+000   0.000000000000E+000 
      1   255        1   256        1   224        0     0        0     0     2.500000000000E-001   0.000000000000E+000   0.000000000000E+000 
      1   255        1   258        1   286        0     0        0     0     2.500000000000E-001   0.000000000000E+000   0.000000000000E+000 
      1   257        1   260        1   228        0     0        0     0     2.500000000000E-001   0.000000000000E+000   0.000000000000E+000 
      1   259        1   268        1   257        0     0        0     0     2.500000000000E-001   0.000000000000E+000   0.000000000000E+000 
      1   257        1   264        1   259        0     0        0     0     2.500000000000E-001   0.000000000000E+000   0.000000000000E+000 
      1   259        1   272        1   288        1   290        1   287     5.555555555556E-002   5.555555555556E-002   5.555555555556E-002 
      1   276        1   263        1   247        0     0        0     0     2.500000000000E-001   0.000000000000E+000   0.000000000000E+000 
      1   278        1   271        1   276        0     0        0     0     2.500000000000E-001   0.000000000000E+000   0.000000000000E+000 
      1   276        1   267        1   278        0     0        0     0     2.500000000000E-001   0.000000000000E+000   0.000000000000E+000 
      1   278        1   275        1   289        1   291        1   292     5.555555555556E-002   5.555555555556E-002   5.555555555556E-002 
      1   280        1   277        1   249        0     0        0     0     2.500000000000E-001   0.000000000000E+000   0.000000000000E+000 
      1   280        1   279        1   293        0     0        0     0     2.500000000000E-001   0.000000000000E+000   0.000000000000E+000 
      1   287        1   258        1   286        0     0        0     0     2.500000000000E-001   0.000000000000E+000   0.000000000000E+000 
      1   287        1   259        1   290        1   288        0     0     1.666666666667E-001   1.666666666667E-001   0.000000000000E+000 
      1   287        1   288        1   259        1   258        0     0     1.666666666667E-001   1.666666666667E-001   0.000000000000E+000 
      1   287        1   290        1   300        0     0        0     0     2.500000000000E-001   0.000000000000E+000   0.000000000000E+000 
      1   288        1   272        1   258        1   259        1   287     5.555555555556E-002   5.555555555556E-002   5.555555555556E-002 
      1   289        1   274        1   288        0     0        0     0     2.500000000000E-001   0.000000000000E+000   0.000000000000E+000 
      1   288        1   273        1   289        0     0        0     0     2.500000000000E-001   0.000000000000E+000   0.000000000000E+000 
      1   289        1   275        1   278        1   279        1   292     5.555555555556E-002   5.555555555556E-002   5.555555555556E-002 
      1   292        1   278        1   291        1   289        0     0     1.666666666667E-001   1.666666666667E-001   0.000000000000E+000 
      1   292        1   279        1   293        0     0        0     0     2.500000000000E-001   0.000000000000E+000   0.000000000000E+000 
      1   292        1   289        1   279        1   278        0     0     1.666666666667E-001   1.666666666667E-001   0.000000000000E+000 
      1   292        1   291        1   302        0     0        0     0     2.500000000000E-001   0.000000000000E+000   0.000000000000E+000 
      1   301        1   290        1   300        0     0        0     0     2.500000000000E-001   0.000000000000E+000   0.000000000000E+000 
      1   301        1   291        1   302        0     0        0     0     2.500000000000E-001   0.000000000000E+000   0.000000000000E+000 
      2     3        2    13        2     2        0     0        0     0     2.500000000000E-001   0.000000000000E+000   0.000000000000E+000 
      2     3        2    14        2     4        0     0        0     0     2.500000000000E-001   0.000000000000E+000   0.000000000000E+000 
      2     4        2    17        2     3        0     0        0     0     2.500000000000E-001   0.000000000000E+000   0.000000000000E+000 
      2     4        2    18        2     5        0     0        0     0     2.500000000000E-001   0.000000000000E+000   0.000000000000E+000 
      2     5        2    21        2     4        0     0        0     0     2.500000000000E-001   0.000000000000E+000   0.000000000000E+000 
      2     5        2    22        2     6        0     0        0     0     2.500000000000E-001   0.000000000000E+000   0.000000000000E+000 
      2     6        2    25        2     5        0     0        0     0     2.500000000000E-001   0.000000000000E+000   0.000000000000E+000 
      2     6        2    26        2     7        0     0        0     0     2.500000000000E-001   0.000000000000E+000   0.000000000000E+000 
      2     7        2    29        2     6        0     0        0     0     2.500000000000E-001   0.000000000000E+000   0.000000000000E+000 
      2     7        2    30        2     8        0     0        0     0     2.500000000000E-001   0.000000000000E+000   0.000000000000E+000 
      2     8        2    33        2     7        0     0        0     0     2.500000000000E-001   0.000000000000E+000   0.000000000000E+000 
      2     8        2    34        2     9        0     0        0     0     2.500000000000E-001   0.000000000000E+000   0.000000000000E+000 
      2    12        2    40        2    11        0     0        0     0     2.500000000000E-001   0.000000000000E+000   0.000000000000E+000 
      2    12        2    41        2    15        2    13        0     0     1.666666666667E-001   1.666666666667E-001   0.000000000000E+000 
      2    12        2    13        2     2        0     0        0     0     2.500000000000E-001   0.000000000000E+000   0.000000000000E+000 
      2    12        2    15        2    41        2    40        0     0     1.666666666667E-001   1.666666666667E-001   0.000000000000E+000 
      2    15        2    44        2    40        2    41        2    12     5.555555555556E-002   5.555555555556E-002   5.555555555556E-002 
      2    16        2    46        2    15        0     0        0     0     2.500000000000E-001   0.000000000000E+000   0.000000000000E+000 
      2    15        2    45        2    16        0     0        0     0     2.500000000000E-001   0.000000000000E+000   0.000000000000E+000 
      2    16        2    47        2    19        0     0        0     0     2.500000000000E-001   0.000000000000E+000   0.000000000000E+000 
      2    19        2    60        2    14        0     0        0     0     2.500000000000E-001   0.000000000000E+000   0.000000000000E+000 
      2    20        2    62        2    19        0     0        0     0     2.500000000000E-001   0.000000000000E+000   0.000000000000E+000 
      2    19        2    61        2    20        0     0        0     0     2.500000000000E-001   0.000000000000E+000   0.000000000000E+000 
      2    20        2    63        2    23        0     0        0     0     2.500000000000E-001   0.000000000000E+000   0.000000000000E+000 
      2    23        2    76        2    18        0     0        0     0     2.500000000000E-001   0.000000000000E+000   0.000000000000E+000 
      2    24        2    78        2    23        0     0        0     0     2.500000000000E-001   0.000000000000E+000   0.000000000000E+000 
      2    23        2    77        2    24        0     0        0     0     2.500000000000E-001   0.000000000000E+000   0.000000000000E+000 
      2    24        2    79        2    27        0     0        0     0     2.500000000000E-001   0.000000000000E+000   0.000000000000E+000 
      2    27        2    92        2    22        0     0        0     0     2.500000000000E-001   0.000000000000E+000   0.000000000000E+000 
      2    28        2    94        2    27        0     0        0     0     2.500000000000E-001   0.000000000000E+000   0.000000000000E+000 
      2    27        2    93        2    28        0     0        0     0     2.500000000000E-001   0.000000000000E+000   0.000000000000E+000 
      2    28        2    95        2    31        0     0        0     0     2.500000000000E-001   0.000000000000E+000   0.000000000000E+000 
      2    31        2   108        2    26        0     0        0     0     2.500000000000E-001   0.000000000000E+000   0.000000000000E+000 
      2    32        2   110        2    31        0     0        0     0     2.500000000000E-001   0.000000000000E+000   0.000000000000E+000 
      2    31        2   109        2    32        0     0        0     0     2.500000000000E-001   0.000000000000E+000   0.000000000000E+000 
      2    32        2   111        2    35        0     0        0     0     2.500000000000E-001   0.000000000000E+000   0.000000000000E+000 
      2    35        2   124        2    30        0     0        0     0     2.500000000000E-001   0.000000000000E+000   0.000000000000E+000 
      2    36        2   126        2    35        0     0        0     0     2.500000000000E-001   0.000000000000E+000   0.000000000000E+000 
      2    35        2   125        2    36        0     0        0     0     2.500000000000E-001   0.000000000000E+000   0.000000000000E+000 
      2    36        2   127        2   140        2   141        2    37     5.555555555556E-002   5.555555555556E-002   5.555555555556E-002 
      2    37        2   140        2    36        2    34        0     0     1.666666666667E-001   1.666666666667E-001   0.000000000000E+000 
      2    37        2   141        2    38        0     0        0     0     2.500000000000E-001   0.000000000000E+000   0.000000000000E+000 
      2    37        2    34        2     9        0     0        0     0     2.500000000000E-001   0.000000000000E+000   0.000000000000E+000 
      2    37        2    36        2   141        2   140        0     0     1.666666666667E-001   1.666666666667E-001   0.000000000000E+000 
      2    39        2    40        2    11        0     0        0     0     2.500000000000E-001   0.000000000000E+000   0.000000000000E+000 
      2    39        2    42        2   145        0     0        0     0     2.500000000000E-001   0.000000000000E+000   0.000000000000E+000 
      2    41        2    44        2    13        2    15        2    12     5.555555555556E-002   5.555555555556E-002   5.555555555556E-002 
      2    43        2    52        2    41        0     0        0     0     2.500000000000E-001   0.000000000000E+000   0.000000000000E+000 
      2    41        2    48        2    43        0     0        0     0     2.500000000000E-001   0.000000000000E+000   0.000000000000E+000 
      2    43        2    56        2   147        2   149        2   146     5.555555555556E-002   5.555555555556E-002   5.555555555556E-002 
      2   140        2   127        2    34        2    36        2    37     5.555555555556E-002   5.555555555556E-002   5.555555555556E-002 
      2   142        2   135        2   140        0     0        0     0     2.500000000000E-001   0.000000000000E+000   0.000000000000E+000 
      2   140        2   131        2   142        0     0        0     0     2.500000000000E-001   0.000000000000E+000   0.000000000000E+000 
      2   142        2   139        2   183        0     0        0     0     2.500000000000E-001   0.000000000000E+000   0.000000000000E+000 
      2   144        2   141        2    38        0     0        0     0     2.500000000000E-001   0.000000000000E+000   0.000000000000E+000 
      2   144        2   143        2   187        0     0        0     0     2.500000000000E-001   0.000000000000E+000   0.000000000000E+000 
      2   146        2    42        2   145        0     0        0     0     2.500000000000E-001   0.000000000000E+000   0.000000000000E+000 
      2   146        2    43        2   149        2   147        0     0     1.666666666667E-001   1.666666666667E-001   0.000000000000E+000 
      2   146        2   147        2    43        2    42        0     0     1.666666666667E-001   1.666666666667E-001   0.000000000000E+000 
      2   146        2   149        2   189        0     0        0     0     2.500000000000E-001   0.000000000000E+000   0.000000000000E+000 