# NPF: Node Property Flow package file created on 10/3/2022 by ModelMuse version 5.0.0.28.
BEGIN OPTIONS
    SAVE_FLOWS
  SAVE_SPECIFIC_DISCHARGE
  SAVE_SATURATION
END OPTIONS


BEGIN GRIDDATA
  ICELLTYPE LAYERED IPRN     5
    CONSTANT      1 # ICELLTYPE 1
    CONSTANT      1 # ICELLTYPE 2
    CONSTANT      1 # ICELLTYPE 3
    CONSTANT      1 # ICELLTYPE 4
    CONSTANT      1 # ICELLTYPE 5
    CONSTANT      1 # ICELLTYPE 6
    CONSTANT      1 # ICELLTYPE 7
    CONSTANT      1 # ICELLTYPE 8
    CONSTANT      1 # ICELLTYPE 9
    CONSTANT      1 # ICELLTYPE 10
    CONSTANT      1 # ICELLTYPE 11
    CONSTANT      1 # ICELLTYPE 12
    CONSTANT      1 # ICELLTYPE 13
    CONSTANT      1 # ICELLTYPE 14
    CONSTANT      1 # ICELLTYPE 15
    CONSTANT      1 # ICELLTYPE 16
    CONSTANT      1 # ICELLTYPE 17
    CONSTANT      1 # ICELLTYPE 18
    CONSTANT      1 # ICELLTYPE 19
    CONSTANT      1 # ICELLTYPE 20
  K LAYERED IPRN    12
    CONSTANT   2.500000000000E+000  # K 1

    CONSTANT   2.500000000000E+000  # K 2

    CONSTANT   2.500000000000E+000  # K 3

    CONSTANT   2.500000000000E+000  # K 4

    CONSTANT   2.500000000000E+000  # K 5

    CONSTANT   2.500000000000E+000  # K 6

    CONSTANT   2.500000000000E+000  # K 7

    CONSTANT   2.500000000000E+000  # K 8

    CONSTANT   2.500000000000E+000  # K 9

    CONSTANT   2.500000000000E+000  # K 10

    CONSTANT   2.500000000000E+000  # K 11

    CONSTANT   2.500000000000E+000  # K 12

    CONSTANT   2.500000000000E+000  # K 13

    CONSTANT   2.500000000000E+000  # K 14

    CONSTANT   2.500000000000E+000  # K 15

    CONSTANT   2.500000000000E+000  # K 16

    CONSTANT   2.500000000000E+000  # K 17

    CONSTANT   2.500000000000E+000  # K 18

    CONSTANT   2.500000000000E+000  # K 19

    CONSTANT   2.500000000000E+000  # K 20

  K33 LAYERED IPRN    12
    CONSTANT   5.000000000000E-001  # K33 1

    CONSTANT   5.000000000000E-001  # K33 2

    CONSTANT   5.000000000000E-001  # K33 3

    CONSTANT   5.000000000000E-001  # K33 4

    CONSTANT   5.000000000000E-001  # K33 5

    CONSTANT   5.000000000000E-001  # K33 6

    CONSTANT   5.000000000000E-001  # K33 7

    CONSTANT   5.000000000000E-001  # K33 8

    CONSTANT   5.000000000000E-001  # K33 9

    CONSTANT   5.000000000000E-001  # K33 10

    CONSTANT   5.000000000000E-001  # K33 11

    CONSTANT   5.000000000000E-001  # K33 12

    CONSTANT   5.000000000000E-001  # K33 13

    CONSTANT   5.000000000000E-001  # K33 14

    CONSTANT   5.000000000000E-001  # K33 15

    CONSTANT   5.000000000000E-001  # K33 16

    CONSTANT   5.000000000000E-001  # K33 17

    CONSTANT   5.000000000000E-001  # K33 18

    CONSTANT   5.000000000000E-001  # K33 19

    CONSTANT   5.000000000000E-001  # K33 20

  K22 LAYERED IPRN    12
    CONSTANT   2.500000000000E+000  # K22 1

    CONSTANT   2.500000000000E+000  # K22 2

    CONSTANT   2.500000000000E+000  # K22 3

    CONSTANT   2.500000000000E+000  # K22 4

    CONSTANT   2.500000000000E+000  # K22 5

    CONSTANT   2.500000000000E+000  # K22 6

    CONSTANT   2.500000000000E+000  # K22 7

    CONSTANT   2.500000000000E+000  # K22 8

    CONSTANT   2.500000000000E+000  # K22 9

    CONSTANT   2.500000000000E+000  # K22 10

    CONSTANT   2.500000000000E+000  # K22 11

    CONSTANT   2.500000000000E+000  # K22 12

    CONSTANT   2.500000000000E+000  # K22 13

    CONSTANT   2.500000000000E+000  # K22 14

    CONSTANT   2.500000000000E+000  # K22 15

    CONSTANT   2.500000000000E+000  # K22 16

    CONSTANT   2.500000000000E+000  # K22 17

    CONSTANT   2.500000000000E+000  # K22 18

    CONSTANT   2.500000000000E+000  # K22 19

    CONSTANT   2.500000000000E+000  # K22 20

  angle1 LAYERED IPRN    12
    CONSTANT   0.000000000000E+000  # angle1 1

    CONSTANT   0.000000000000E+000  # angle1 2

    CONSTANT   0.000000000000E+000  # angle1 3

    CONSTANT   0.000000000000E+000  # angle1 4

    CONSTANT   0.000000000000E+000  # angle1 5

    CONSTANT   0.000000000000E+000  # angle1 6

    CONSTANT   0.000000000000E+000  # angle1 7

    CONSTANT   0.000000000000E+000  # angle1 8

    CONSTANT   0.000000000000E+000  # angle1 9

    CONSTANT   0.000000000000E+000  # angle1 10

    CONSTANT   0.000000000000E+000  # angle1 11

    CONSTANT   0.000000000000E+000  # angle1 12

    CONSTANT   0.000000000000E+000  # angle1 13

    CONSTANT   0.000000000000E+000  # angle1 14

    CONSTANT   0.000000000000E+000  # angle1 15

    CONSTANT   0.000000000000E+000  # angle1 16

    CONSTANT   0.000000000000E+000  # angle1 17

    CONSTANT   0.000000000000E+000  # angle1 18

    CONSTANT   0.000000000000E+000  # angle1 19

    CONSTANT   0.000000000000E+000  # angle1 20

  angle2 LAYERED IPRN    12
    CONSTANT   0.000000000000E+000  # angle2 1

    CONSTANT   0.000000000000E+000  # angle2 2

    CONSTANT   0.000000000000E+000  # angle2 3

    CONSTANT   0.000000000000E+000  # angle2 4

    CONSTANT   0.000000000000E+000  # angle2 5

    CONSTANT   0.000000000000E+000  # angle2 6

    CONSTANT   0.000000000000E+000  # angle2 7

    CONSTANT   0.000000000000E+000  # angle2 8

    CONSTANT   0.000000000000E+000  # angle2 9

    CONSTANT   0.000000000000E+000  # angle2 10

    CONSTANT   0.000000000000E+000  # angle2 11

    CONSTANT   0.000000000000E+000  # angle2 12

    CONSTANT   0.000000000000E+000  # angle2 13

    CONSTANT   0.000000000000E+000  # angle2 14

    CONSTANT   0.000000000000E+000  # angle2 15

    CONSTANT   0.000000000000E+000  # angle2 16

    CONSTANT   0.000000000000E+000  # angle2 17

    CONSTANT   0.000000000000E+000  # angle2 18

    CONSTANT   0.000000000000E+000  # angle2 19

    CONSTANT   0.000000000000E+000  # angle2 20

  angle3 LAYERED IPRN    12
    CONSTANT   0.000000000000E+000  # angle3 1

    CONSTANT   0.000000000000E+000  # angle3 2

    CONSTANT   0.000000000000E+000  # angle3 3

    CONSTANT   0.000000000000E+000  # angle3 4

    CONSTANT   0.000000000000E+000  # angle3 5

    CONSTANT   0.000000000000E+000  # angle3 6

    CONSTANT   0.000000000000E+000  # angle3 7

    CONSTANT   0.000000000000E+000  # angle3 8

    CONSTANT   0.000000000000E+000  # angle3 9

    CONSTANT   0.000000000000E+000  # angle3 10

    CONSTANT   0.000000000000E+000  # angle3 11

    CONSTANT   0.000000000000E+000  # angle3 12

    CONSTANT   0.000000000000E+000  # angle3 13

    CONSTANT   0.000000000000E+000  # angle3 14

    CONSTANT   0.000000000000E+000  # angle3 15

    CONSTANT   0.000000000000E+000  # angle3 16

    CONSTANT   0.000000000000E+000  # angle3 17

    CONSTANT   0.000000000000E+000  # angle3 18

    CONSTANT   0.000000000000E+000  # angle3 19

    CONSTANT   0.000000000000E+000  # angle3 20

END GRIDDATA

