# Output Control file created on 10/3/2022 by ModelMuse version 5.0.0.28.
BEGIN OPTIONS
  BUDGET FILEOUT 'gwt-uzt-2d-a.cbc'
  HEAD FILEOUT 'gwt-uzt-2d-a.bhd'
END OPTIONS

BEGIN PERIOD      1
  SAVE HEAD ALL
  PRINT BUDGET ALL
  SAVE BUDGET ALL
END PERIOD 

