# STO: Storage package file created on 10/3/2022 by ModelMuse version 5.0.0.28.
BEGIN OPTIONS
    SAVE_FLOWS
END OPTIONS

BEGIN GRIDDATA
  ICONVERT LAYERED IPRN     5
    CONSTANT      1 # ICONVERT 1
    CONSTANT      1 # ICONVERT 2
    CONSTANT      1 # ICONVERT 3
    CONSTANT      1 # ICONVERT 4
    CONSTANT      1 # ICONVERT 5
    CONSTANT      1 # ICONVERT 6
    CONSTANT      1 # ICONVERT 7
    CONSTANT      1 # ICONVERT 8
    CONSTANT      1 # ICONVERT 9
    CONSTANT      1 # ICONVERT 10
    CONSTANT      1 # ICONVERT 11
    CONSTANT      1 # ICONVERT 12
    CONSTANT      1 # ICONVERT 13
    CONSTANT      1 # ICONVERT 14
    CONSTANT      1 # ICONVERT 15
    CONSTANT      1 # ICONVERT 16
    CONSTANT      1 # ICONVERT 17
    CONSTANT      1 # ICONVERT 18
    CONSTANT      1 # ICONVERT 19
    CONSTANT      1 # ICONVERT 20
  SS LAYERED IPRN    12
    CONSTANT   1.000000000000E-005  # SS 1

    CONSTANT   1.000000000000E-005  # SS 2

    CONSTANT   1.000000000000E-005  # SS 3

    CONSTANT   1.000000000000E-005  # SS 4

    CONSTANT   1.000000000000E-005  # SS 5

    CONSTANT   1.000000000000E-005  # SS 6

    CONSTANT   1.000000000000E-005  # SS 7

    CONSTANT   1.000000000000E-005  # SS 8

    CONSTANT   1.000000000000E-005  # SS 9

    CONSTANT   1.000000000000E-005  # SS 10

    CONSTANT   1.000000000000E-005  # SS 11

    CONSTANT   1.000000000000E-005  # SS 12

    CONSTANT   1.000000000000E-005  # SS 13

    CONSTANT   1.000000000000E-005  # SS 14

    CONSTANT   1.000000000000E-005  # SS 15

    CONSTANT   1.000000000000E-005  # SS 16

    CONSTANT   1.000000000000E-005  # SS 17

    CONSTANT   1.000000000000E-005  # SS 18

    CONSTANT   1.000000000000E-005  # SS 19

    CONSTANT   1.000000000000E-005  # SS 20

  SY LAYERED IPRN    12
    CONSTANT   3.500000000000E-001  # SY 1

    CONSTANT   3.500000000000E-001  # SY 2

    CONSTANT   3.500000000000E-001  # SY 3

    CONSTANT   3.500000000000E-001  # SY 4

    CONSTANT   3.500000000000E-001  # SY 5

    CONSTANT   3.500000000000E-001  # SY 6

    CONSTANT   3.500000000000E-001  # SY 7

    CONSTANT   3.500000000000E-001  # SY 8

    CONSTANT   3.500000000000E-001  # SY 9

    CONSTANT   3.500000000000E-001  # SY 10

    CONSTANT   3.500000000000E-001  # SY 11

    CONSTANT   3.500000000000E-001  # SY 12

    CONSTANT   3.500000000000E-001  # SY 13

    CONSTANT   3.500000000000E-001  # SY 14

    CONSTANT   3.500000000000E-001  # SY 15

    CONSTANT   3.500000000000E-001  # SY 16

    CONSTANT   3.500000000000E-001  # SY 17

    CONSTANT   3.500000000000E-001  # SY 18

    CONSTANT   3.500000000000E-001  # SY 19

    CONSTANT   3.500000000000E-001  # SY 20

END GRIDDATA

BEGIN PERIOD      1
  STEADY-STATE
END PERIOD 

