# Initial Conditions Package file created on 6/24/2024 by ModelMuse version 5.2.0.18.
BEGIN OPTIONS
END OPTIONS

BEGIN GRIDDATA
  STRT LAYERED IPRN    12
    CONSTANT   1.625000000000E+000  # STRT Layer1

    CONSTANT   1.625000000000E+000  # STRT Layer2

    CONSTANT   1.625000000000E+000  # STRT Layer3

    CONSTANT   1.625000000000E+000  # STRT Layer4

    CONSTANT   1.625000000000E+000  # STRT Layer5

    CONSTANT   1.625000000000E+000  # STRT Layer6

    CONSTANT   1.625000000000E+000  # STRT Layer7

    CONSTANT   1.625000000000E+000  # STRT Layer8

    CONSTANT   1.625000000000E+000  # STRT Layer9

    CONSTANT   1.625000000000E+000  # STRT Layer10

    CONSTANT   1.625000000000E+000  # STRT Layer11

    CONSTANT   1.625000000000E+000  # STRT Layer12

    CONSTANT   1.625000000000E+000  # STRT Layer13

    CONSTANT   1.625000000000E+000  # STRT Layer14

    CONSTANT   1.625000000000E+000  # STRT Layer15

    CONSTANT   1.625000000000E+000  # STRT Layer16

    CONSTANT   1.625000000000E+000  # STRT Layer17

    CONSTANT   1.625000000000E+000  # STRT Layer18

    CONSTANT   1.625000000000E+000  # STRT Layer19

    CONSTANT   1.625000000000E+000  # STRT Layer20

END GRIDDATA

