# DSP: GWT Dispersion Package file created on 10/3/2022 by ModelMuse version 5.0.0.28.
BEGIN OPTIONS
END OPTIONS

BEGIN GRIDDATA
  DIFFC LAYERED IPRN    12
    CONSTANT   0.000000000000E+000  # DIFFC 1

    CONSTANT   0.000000000000E+000  # DIFFC 2

    CONSTANT   0.000000000000E+000  # DIFFC 3

    CONSTANT   0.000000000000E+000  # DIFFC 4

    CONSTANT   0.000000000000E+000  # DIFFC 5

    CONSTANT   0.000000000000E+000  # DIFFC 6

    CONSTANT   0.000000000000E+000  # DIFFC 7

    CONSTANT   0.000000000000E+000  # DIFFC 8

    CONSTANT   0.000000000000E+000  # DIFFC 9

    CONSTANT   0.000000000000E+000  # DIFFC 10

    CONSTANT   0.000000000000E+000  # DIFFC 11

    CONSTANT   0.000000000000E+000  # DIFFC 12

    CONSTANT   0.000000000000E+000  # DIFFC 13

    CONSTANT   0.000000000000E+000  # DIFFC 14

    CONSTANT   0.000000000000E+000  # DIFFC 15

    CONSTANT   0.000000000000E+000  # DIFFC 16

    CONSTANT   0.000000000000E+000  # DIFFC 17

    CONSTANT   0.000000000000E+000  # DIFFC 18

    CONSTANT   0.000000000000E+000  # DIFFC 19

    CONSTANT   0.000000000000E+000  # DIFFC 20

  ALH LAYERED IPRN    12
    CONSTANT   5.000000000000E-001  # ALH 1

    CONSTANT   5.000000000000E-001  # ALH 2

    CONSTANT   5.000000000000E-001  # ALH 3

    CONSTANT   5.000000000000E-001  # ALH 4

    CONSTANT   5.000000000000E-001  # ALH 5

    CONSTANT   5.000000000000E-001  # ALH 6

    CONSTANT   5.000000000000E-001  # ALH 7

    CONSTANT   5.000000000000E-001  # ALH 8

    CONSTANT   5.000000000000E-001  # ALH 9

    CONSTANT   5.000000000000E-001  # ALH 10

    CONSTANT   5.000000000000E-001  # ALH 11

    CONSTANT   5.000000000000E-001  # ALH 12

    CONSTANT   5.000000000000E-001  # ALH 13

    CONSTANT   5.000000000000E-001  # ALH 14

    CONSTANT   5.000000000000E-001  # ALH 15

    CONSTANT   5.000000000000E-001  # ALH 16

    CONSTANT   5.000000000000E-001  # ALH 17

    CONSTANT   5.000000000000E-001  # ALH 18

    CONSTANT   5.000000000000E-001  # ALH 19

    CONSTANT   5.000000000000E-001  # ALH 20

  ATH1 LAYERED IPRN    12
    CONSTANT   2.000000000000E-001  # ATH1 1

    CONSTANT   2.000000000000E-001  # ATH1 2

    CONSTANT   2.000000000000E-001  # ATH1 3

    CONSTANT   2.000000000000E-001  # ATH1 4

    CONSTANT   2.000000000000E-001  # ATH1 5

    CONSTANT   2.000000000000E-001  # ATH1 6

    CONSTANT   2.000000000000E-001  # ATH1 7

    CONSTANT   2.000000000000E-001  # ATH1 8

    CONSTANT   2.000000000000E-001  # ATH1 9

    CONSTANT   2.000000000000E-001  # ATH1 10

    CONSTANT   2.000000000000E-001  # ATH1 11

    CONSTANT   2.000000000000E-001  # ATH1 12

    CONSTANT   2.000000000000E-001  # ATH1 13

    CONSTANT   2.000000000000E-001  # ATH1 14

    CONSTANT   2.000000000000E-001  # ATH1 15

    CONSTANT   2.000000000000E-001  # ATH1 16

    CONSTANT   2.000000000000E-001  # ATH1 17

    CONSTANT   2.000000000000E-001  # ATH1 18

    CONSTANT   2.000000000000E-001  # ATH1 19

    CONSTANT   2.000000000000E-001  # ATH1 20

END GRIDDATA

