BEGIN TIMING
  TDIS6 'gwt-uzt-2d-a.tdis'
END TIMING

BEGIN MODELS
  GWF6 'gwt-uzt-2d-a.nam' 'MODFLOW'
  GWT6 'gwt-uzt-2d-a.Chem.Gwt_nam' 'Chem'
END MODELS

BEGIN EXCHANGES
  GWF6-GWT6 gwt-uzt-2d-a.Chem.gwfgwt MODFLOW Chem
END EXCHANGES

BEGIN SOLUTIONGROUP     1
  MXITER     1
  IMS6 'gwt-uzt-2d-a.ims' 'MODFLOW' 
  IMS6 'gwt-uzt-2d-a.Chem.ims' 'Chem' 
END SOLUTIONGROUP

