# Name File for MODFLOW created on 2/4/2020 by ModelMuse Version 4.1.0.25
LIST             11 ..\..\output\output.GWT\GWT.lst REPLACE
DATA(BINARY)      9 ..\..\output\output.GWT\GWT.cbc REPLACE
DIS              12 ..\..\model\model.GWT\GWT.dis OLD
BAS6             13 ..\..\model\model.GWT\GWT.bas OLD
OC               39 ..\..\model\model.GWT\GWT.oc OLD
DATA             37 ..\..\output\output.GWT\GWT.fhd REPLACE
DATA             38 ..\..\output\output.GWT\GWT.fdn REPLACE
SIP              35 ..\..\model\model.GWT\GWT.sip OLD
BCF6             64 ..\..\model\model.GWT\GWT.bcf OLD
LMT6            135 ..\..\model\model.GWT\GWT.lmt OLD
CHD              17 ..\..\model\model.GWT\GWT.chd OLD
RCH              24 ..\..\model\model.GWT\GWT.rch OLD
LAK              28 ..\..\model\model.GWT\GWT.lak OLD
DATA          20205 ..\..\output\output.GWT\GWT.lakg1 REPLACE
SFR              29 ..\..\model\model.GWT\GWT.sfr OLD
DATA          20206 ..\..\output\output.GWT\GWT.sfrg2 REPLACE
DATA          20207 ..\..\output\output.GWT\GWT.sfrg3 REPLACE
DATA          20208 ..\..\output\output.GWT\GWT.sfrg4 REPLACE
DATA          20209 ..\..\output\output.GWT\GWT.sfrg5 REPLACE
DATA          20210 ..\..\output\output.GWT\GWT.sfrg6 REPLACE
DATA          20211 ..\..\output\output.GWT\GWT.sfrg7 REPLACE
GAGE             40 ..\..\model\model.GWT\GWT.gag OLD
