# Name File for MODFLOW created on 2/4/2020 by ModelMuse Version 4.1.0.25
LIST             11 GWT.lst REPLACE
DATA(BINARY)      9 GWT.cbc REPLACE
DIS              12 GWT.dis OLD
BAS6             13 GWT.bas OLD
OC               39 GWT.oc OLD
DATA             37 GWT.fhd REPLACE
DATA             38 GWT.fdn REPLACE
SIP              35 GWT.sip OLD
BCF6             64 GWT.bcf OLD
LMT6            135 GWT.lmt OLD
CHD              17 GWT.chd OLD
RCH              24 GWT.rch OLD
LAK              28 GWT.lak OLD
DATA          20205 GWT.lakg1 REPLACE
SFR              29 GWT.sfr OLD
DATA          20206 GWT.sfrg2 REPLACE
DATA          20207 GWT.sfrg3 REPLACE
DATA          20208 GWT.sfrg4 REPLACE
DATA          20209 GWT.sfrg5 REPLACE
DATA          20210 GWT.sfrg6 REPLACE
DATA          20211 GWT.sfrg7 REPLACE
GAGE             40 GWT.gag OLD
