# CHD: Time-Variant Specified-Head package file created on 10/3/2022 by ModelMuse version 5.0.0.28.
BEGIN OPTIONS
    AUXILIARY IFACE Chem
    BOUNDNAMES
    PRINT_INPUT
    SAVE_FLOWS
END OPTIONS

BEGIN DIMENSIONS
  MAXBOUND    62
END DIMENSIONS

BEGIN PERIOD      1
     1     1     1  4.500000000000E+001      0  0.000000000000E+000  'Object0'  # Data Set 6: Layer Row Column Shead IFACE Chem boundname
     1     2     1  4.500000000000E+001      0  0.000000000000E+000  'Object0'  # Data Set 6: Layer Row Column Shead IFACE Chem boundname
     1     3     1  4.500000000000E+001      0  0.000000000000E+000  'Object0'  # Data Set 6: Layer Row Column Shead IFACE Chem boundname
     1     4     1  4.500000000000E+001      0  0.000000000000E+000  'Object0'  # Data Set 6: Layer Row Column Shead IFACE Chem boundname
     1     5     1  4.500000000000E+001      0  0.000000000000E+000  'Object0'  # Data Set 6: Layer Row Column Shead IFACE Chem boundname
     1     6     1  4.500000000000E+001      0  0.000000000000E+000  'Object0'  # Data Set 6: Layer Row Column Shead IFACE Chem boundname
     1     7     1  4.500000000000E+001      0  0.000000000000E+000  'Object0'  # Data Set 6: Layer Row Column Shead IFACE Chem boundname
     1     8     1  4.500000000000E+001      0  0.000000000000E+000  'Object0'  # Data Set 6: Layer Row Column Shead IFACE Chem boundname
     1     9     1  4.500000000000E+001      0  0.000000000000E+000  'Object0'  # Data Set 6: Layer Row Column Shead IFACE Chem boundname
     1    10     1  4.500000000000E+001      0  0.000000000000E+000  'Object0'  # Data Set 6: Layer Row Column Shead IFACE Chem boundname
     1    11     1  4.500000000000E+001      0  0.000000000000E+000  'Object0'  # Data Set 6: Layer Row Column Shead IFACE Chem boundname
     1    12     1  4.500000000000E+001      0  0.000000000000E+000  'Object0'  # Data Set 6: Layer Row Column Shead IFACE Chem boundname
     1    13     1  4.500000000000E+001      0  0.000000000000E+000  'Object0'  # Data Set 6: Layer Row Column Shead IFACE Chem boundname
     1    14     1  4.500000000000E+001      0  0.000000000000E+000  'Object0'  # Data Set 6: Layer Row Column Shead IFACE Chem boundname
     1    15     1  4.500000000000E+001      0  0.000000000000E+000  'Object0'  # Data Set 6: Layer Row Column Shead IFACE Chem boundname
     1    16     1  4.500000000000E+001      0  0.000000000000E+000  'Object0'  # Data Set 6: Layer Row Column Shead IFACE Chem boundname
     1    17     1  4.500000000000E+001      0  0.000000000000E+000  'Object0'  # Data Set 6: Layer Row Column Shead IFACE Chem boundname
     1    18     1  4.500000000000E+001      0  0.000000000000E+000  'Object0'  # Data Set 6: Layer Row Column Shead IFACE Chem boundname
     1    19     1  4.500000000000E+001      0  0.000000000000E+000  'Object0'  # Data Set 6: Layer Row Column Shead IFACE Chem boundname
     1    20     1  4.500000000000E+001      0  0.000000000000E+000  'Object0'  # Data Set 6: Layer Row Column Shead IFACE Chem boundname
     1    21     1  4.500000000000E+001      0  0.000000000000E+000  'Object0'  # Data Set 6: Layer Row Column Shead IFACE Chem boundname
     1    22     1  4.500000000000E+001      0  0.000000000000E+000  'Object0'  # Data Set 6: Layer Row Column Shead IFACE Chem boundname
     1    23     1  4.500000000000E+001      0  0.000000000000E+000  'Object0'  # Data Set 6: Layer Row Column Shead IFACE Chem boundname
     1    24     1  4.500000000000E+001      0  0.000000000000E+000  'Object0'  # Data Set 6: Layer Row Column Shead IFACE Chem boundname
     1    25     1  4.500000000000E+001      0  0.000000000000E+000  'Object0'  # Data Set 6: Layer Row Column Shead IFACE Chem boundname
     1    26     1  4.500000000000E+001      0  0.000000000000E+000  'Object0'  # Data Set 6: Layer Row Column Shead IFACE Chem boundname
     1    27     1  4.500000000000E+001      0  0.000000000000E+000  'Object0'  # Data Set 6: Layer Row Column Shead IFACE Chem boundname
     1    28     1  4.500000000000E+001      0  0.000000000000E+000  'Object0'  # Data Set 6: Layer Row Column Shead IFACE Chem boundname
     1    29     1  4.500000000000E+001      0  0.000000000000E+000  'Object0'  # Data Set 6: Layer Row Column Shead IFACE Chem boundname
     1    30     1  4.500000000000E+001      0  0.000000000000E+000  'Object0'  # Data Set 6: Layer Row Column Shead IFACE Chem boundname
     1    31     1  4.500000000000E+001      0  0.000000000000E+000  'Object0'  # Data Set 6: Layer Row Column Shead IFACE Chem boundname
     1     1    41  0.000000000000E+000      0  0.000000000000E+000  'Object1'  # Data Set 6: Layer Row Column Shead IFACE Chem boundname
     1     2    41  0.000000000000E+000      0  0.000000000000E+000  'Object1'  # Data Set 6: Layer Row Column Shead IFACE Chem boundname
     1     3    41  0.000000000000E+000      0  0.000000000000E+000  'Object1'  # Data Set 6: Layer Row Column Shead IFACE Chem boundname
     1     4    41  0.000000000000E+000      0  0.000000000000E+000  'Object1'  # Data Set 6: Layer Row Column Shead IFACE Chem boundname
     1     5    41  0.000000000000E+000      0  0.000000000000E+000  'Object1'  # Data Set 6: Layer Row Column Shead IFACE Chem boundname
     1     6    41  0.000000000000E+000      0  0.000000000000E+000  'Object1'  # Data Set 6: Layer Row Column Shead IFACE Chem boundname
     1     7    41  0.000000000000E+000      0  0.000000000000E+000  'Object1'  # Data Set 6: Layer Row Column Shead IFACE Chem boundname
     1     8    41  0.000000000000E+000      0  0.000000000000E+000  'Object1'  # Data Set 6: Layer Row Column Shead IFACE Chem boundname
     1     9    41  0.000000000000E+000      0  0.000000000000E+000  'Object1'  # Data Set 6: Layer Row Column Shead IFACE Chem boundname
     1    10    41  0.000000000000E+000      0  0.000000000000E+000  'Object1'  # Data Set 6: Layer Row Column Shead IFACE Chem boundname
     1    11    41  0.000000000000E+000      0  0.000000000000E+000  'Object1'  # Data Set 6: Layer Row Column Shead IFACE Chem boundname
     1    12    41  0.000000000000E+000      0  0.000000000000E+000  'Object1'  # Data Set 6: Layer Row Column Shead IFACE Chem boundname
     1    13    41  0.000000000000E+000      0  0.000000000000E+000  'Object1'  # Data Set 6: Layer Row Column Shead IFACE Chem boundname
     1    14    41  0.000000000000E+000      0  0.000000000000E+000  'Object1'  # Data Set 6: Layer Row Column Shead IFACE Chem boundname
     1    15    41  0.000000000000E+000      0  0.000000000000E+000  'Object1'  # Data Set 6: Layer Row Column Shead IFACE Chem boundname
     1    16    41  0.000000000000E+000      0  0.000000000000E+000  'Object1'  # Data Set 6: Layer Row Column Shead IFACE Chem boundname
     1    17    41  0.000000000000E+000      0  0.000000000000E+000  'Object1'  # Data Set 6: Layer Row Column Shead IFACE Chem boundname
     1    18    41  0.000000000000E+000      0  0.000000000000E+000  'Object1'  # Data Set 6: Layer Row Column Shead IFACE Chem boundname
     1    19    41  0.000000000000E+000      0  0.000000000000E+000  'Object1'  # Data Set 6: Layer Row Column Shead IFACE Chem boundname
     1    20    41  0.000000000000E+000      0  0.000000000000E+000  'Object1'  # Data Set 6: Layer Row Column Shead IFACE Chem boundname
     1    21    41  0.000000000000E+000      0  0.000000000000E+000  'Object1'  # Data Set 6: Layer Row Column Shead IFACE Chem boundname
     1    22    41  0.000000000000E+000      0  0.000000000000E+000  'Object1'  # Data Set 6: Layer Row Column Shead IFACE Chem boundname
     1    23    41  0.000000000000E+000      0  0.000000000000E+000  'Object1'  # Data Set 6: Layer Row Column Shead IFACE Chem boundname
     1    24    41  0.000000000000E+000      0  0.000000000000E+000  'Object1'  # Data Set 6: Layer Row Column Shead IFACE Chem boundname
     1    25    41  0.000000000000E+000      0  0.000000000000E+000  'Object1'  # Data Set 6: Layer Row Column Shead IFACE Chem boundname
     1    26    41  0.000000000000E+000      0  0.000000000000E+000  'Object1'  # Data Set 6: Layer Row Column Shead IFACE Chem boundname
     1    27    41  0.000000000000E+000      0  0.000000000000E+000  'Object1'  # Data Set 6: Layer Row Column Shead IFACE Chem boundname
     1    28    41  0.000000000000E+000      0  0.000000000000E+000  'Object1'  # Data Set 6: Layer Row Column Shead IFACE Chem boundname
     1    29    41  0.000000000000E+000      0  0.000000000000E+000  'Object1'  # Data Set 6: Layer Row Column Shead IFACE Chem boundname
     1    30    41  0.000000000000E+000      0  0.000000000000E+000  'Object1'  # Data Set 6: Layer Row Column Shead IFACE Chem boundname
     1    31    41  0.000000000000E+000      0  0.000000000000E+000  'Object1'  # Data Set 6: Layer Row Column Shead IFACE Chem boundname
END PERIOD 

