BEGIN TIMING
  TDIS6 'GwtP03.tdis'
END TIMING

BEGIN MODELS
  GWF6 'GwtP03.nam' 'MODFLOW'
  GWT6 'GwtP03.Chem.Gwt_nam' 'Chem'
END MODELS

BEGIN EXCHANGES
  GWF6-GWT6 GwtP03.Chem.gwfgwt MODFLOW Chem
END EXCHANGES

BEGIN SOLUTIONGROUP     1
  MXITER     1
  IMS6 'GwtP03.ims' 'MODFLOW' 
  IMS6 'GwtP03.Chem.ims' 'Chem' 
END SOLUTIONGROUP

