# IMS: Iterative Model Solution file created on 10/3/2022 by ModelMuse version 5.0.0.28.
BEGIN OPTIONS
  PRINT_OPTION ALL
  COMPLEXITY SIMPLE
  CSV_OUTER_OUTPUT FILEOUT GwtP03.OuterSolution.CSV
  CSV_INNER_OUTPUT FILEOUT GwtP03.InnerSolution.CSV
  ATS_OUTER_MAXIMUM_FRACTION  3.333333333333E-001 
END OPTIONS

BEGIN NONLINEAR
  OUTER_DVCLOSE   1.000000000000E-006 
  OUTER_MAXIMUM     25
  UNDER_RELAXATION NONE
  BACKTRACKING_NUMBER     0
END NONLINEAR

BEGIN LINEAR
  INNER_MAXIMUM   300
  INNER_DVCLOSE  1.000000000000E-006 
  INNER_RCLOSE  1.000000000000E-006 
  LINEAR_ACCELERATION CG
  RELAXATION_FACTOR  1.000000000000E+000 
END LINEAR

