# TDIS file created on 10/3/2022 by ModelMuse version 5.0.0.28.

BEGIN OPTIONS
  TIME_UNITS days
END OPTIONS

BEGIN DIMENSIONS
  NPER     2
END DIMENSIONS

BEGIN PERIODDATA
    1.000000000000E+000      2  1.000000000000E+000  # perlen nstp tsmult, Stress period      1
    3.650000000000E+002    730  1.000000000000E+000  # perlen nstp tsmult, Stress period      2
END PERIODDATA
