# Transport name file for Chem file created on 10/3/2022 by ModelMuse version 5.0.0.28.
BEGIN OPTIONS
  LIST GwtP03.Chem.lst
    PRINT_INPUT
    SAVE_FLOWS
END OPTIONS

BEGIN PACKAGES
  DIS6 GwtP03.Chem.dis
  OC6 GwtP03.Chem.oc
  ADV6 GwtP03.Chem.adv
  DSP6 GwtP03.Chem.dsp
  SSM6 GwtP03.Chem.ssm
  IC6 GwtP03.Chem.ic
  MST6 GwtP03.Chem.mst
  CNC6 GwtP03.Chem.cnc
END PACKAGES
