# Output Control file created on 11/21/2023 by ModelMuse version 5.1.1.45.
BEGIN OPTIONS
  BUDGET FILEOUT 'GwtP03.cbc'
  HEAD PRINT_FORMAT  COLUMNS     10 WIDTH     11 DIGITS      4 GENERAL
  HEAD FILEOUT 'GwtP03.bhd'
END OPTIONS

BEGIN PERIOD      1
  PRINT HEAD LAST
  SAVE HEAD LAST
  PRINT BUDGET ALL
  SAVE BUDGET ALL
END PERIOD 

BEGIN PERIOD      2
  PRINT HEAD LAST
  SAVE HEAD LAST
  PRINT BUDGET ALL
  SAVE BUDGET ALL
END PERIOD 

