# Output Control file created on 10/3/2022 by ModelMuse version 5.0.0.28.
BEGIN OPTIONS
  BUDGET FILEOUT 'GwtP03.cbc'
  HEAD PRINT_FORMAT  COLUMNS     10 WIDTH     11 DIGITS      4
  HEAD FILEOUT 'GwtP03.bhd'
END OPTIONS

BEGIN PERIOD      1
  PRINT HEAD LAST
  SAVE HEAD LAST
  PRINT BUDGET ALL
  SAVE BUDGET ALL
END PERIOD 

BEGIN PERIOD      2
  PRINT HEAD LAST
  SAVE HEAD LAST
  PRINT BUDGET ALL
  SAVE BUDGET ALL
END PERIOD 

