# ADV: GWT Advection Package file created on 10/3/2022 by ModelMuse version 5.0.0.28.
BEGIN OPTIONS
  SCHEME upstream
END OPTIONS

