# Name File for MODFLOW created on 12/14/2015 by ModelMuse
LIST             11 HeadObsOnCellEdges.lst REPLACE
DATA(BINARY)      9 HeadObsOnCellEdges.cbc REPLACE
DIS              12 HeadObsOnCellEdges.dis OLD
BAS6             13 HeadObsOnCellEdges.bas OLD
OC               39 HeadObsOnCellEdges.oc OLD
DATA             37 HeadObsOnCellEdges.fhd REPLACE
DATA             38 HeadObsOnCellEdges.fdn REPLACE
PCG              18 HeadObsOnCellEdges.pcg OLD
LPF              14 HeadObsOnCellEdges.lpf OLD
HOB              41 HeadObsOnCellEdges.ob_hob OLD
DATA             42 HeadObsOnCellEdges.hob_out REPLACE
