# Name File for MODFLOW created on 2/1/2017 by ModelMuse Version 3.8.1.27
LIST             11 ..\..\output\output.HeadObsOnCellEdges\HeadObsOnCellEdges.lst REPLACE
DATA(BINARY)      9 ..\..\output\output.HeadObsOnCellEdges\HeadObsOnCellEdges.cbc REPLACE
DIS              12 ..\..\model\model.HeadObsOnCellEdges\HeadObsOnCellEdges.dis OLD
BAS6             13 ..\..\model\model.HeadObsOnCellEdges\HeadObsOnCellEdges.bas OLD
OC               39 ..\..\model\model.HeadObsOnCellEdges\HeadObsOnCellEdges.oc OLD
DATA             37 ..\..\output\output.HeadObsOnCellEdges\HeadObsOnCellEdges.fhd REPLACE
DATA             38 ..\..\output\output.HeadObsOnCellEdges\HeadObsOnCellEdges.fdn REPLACE
PCG              18 ..\..\model\model.HeadObsOnCellEdges\HeadObsOnCellEdges.pcg OLD
LPF              14 ..\..\model\model.HeadObsOnCellEdges\HeadObsOnCellEdges.lpf OLD
HOB              41 ..\..\model\model.HeadObsOnCellEdges\HeadObsOnCellEdges.ob_hob OLD
DATA             42 ..\..\output\output.HeadObsOnCellEdges\HeadObsOnCellEdges.hob_out REPLACE
