# Name File for MODFLOW created on 12/3/2021 by ModelMuse Version 4.3.0.74
BEGIN OPTIONS
  LIST HfbMf6Test.lst
  PRINT_INPUT
  SAVE_FLOWS
END OPTIONS

BEGIN PACKAGES
  DIS6         HfbMf6Test.dis  DIS
  IC6          HfbMf6Test.ic  IC
  NPF6         HfbMf6Test.npf  NPF
  OC6          HfbMf6Test.oc  OC
  CHD6         HfbMf6Test.chd  CHD-1
  HFB6         HfbMf6Test.hfb  HFB
END PACKAGES
