# NPF: Node Property Flow package file created on 4/6/2021 by ModelMuse version 4.3.0.0.
BEGIN OPTIONS
    SAVE_FLOWS
  SAVE_SPECIFIC_DISCHARGE
END OPTIONS


BEGIN GRIDDATA
  ICELLTYPE LAYERED IPRN     5
    CONSTANT      0 # ICELLTYPE 1
    CONSTANT      0 # ICELLTYPE 2
    CONSTANT      0 # ICELLTYPE 3
    CONSTANT      0 # ICELLTYPE 4
    CONSTANT      0 # ICELLTYPE 5
    CONSTANT      0 # ICELLTYPE 6
    CONSTANT      0 # ICELLTYPE 7
  K LAYERED IPRN    12
    CONSTANT   1.000000000000E+002  # K 1

    CONSTANT   1.000000000000E+002  # K 2

    CONSTANT   1.000000000000E+002  # K 3

    CONSTANT   1.000000000000E+002  # K 4

    CONSTANT   1.000000000000E+002  # K 5

    CONSTANT   1.000000000000E+002  # K 6

    CONSTANT   1.000000000000E+002  # K 7

  K33 LAYERED IPRN    12
    CONSTANT   1.000000000000E+001  # K33 1

    CONSTANT   1.000000000000E+001  # K33 2

    CONSTANT   1.000000000000E+001  # K33 3

    CONSTANT   1.000000000000E+001  # K33 4

    CONSTANT   1.000000000000E+001  # K33 5

    CONSTANT   1.000000000000E+001  # K33 6

    CONSTANT   1.000000000000E+001  # K33 7

  K22 LAYERED IPRN    12
    CONSTANT   1.000000000000E+002  # K22 1

    CONSTANT   1.000000000000E+002  # K22 2

    CONSTANT   1.000000000000E+002  # K22 3

    CONSTANT   1.000000000000E+002  # K22 4

    CONSTANT   1.000000000000E+002  # K22 5

    CONSTANT   1.000000000000E+002  # K22 6

    CONSTANT   1.000000000000E+002  # K22 7

  angle1 LAYERED IPRN    12
    CONSTANT   0.000000000000E+000  # angle1 1

    CONSTANT   0.000000000000E+000  # angle1 2

    CONSTANT   0.000000000000E+000  # angle1 3

    CONSTANT   0.000000000000E+000  # angle1 4

    CONSTANT   0.000000000000E+000  # angle1 5

    CONSTANT   0.000000000000E+000  # angle1 6

    CONSTANT   0.000000000000E+000  # angle1 7

  angle2 LAYERED IPRN    12
    CONSTANT   0.000000000000E+000  # angle2 1

    CONSTANT   0.000000000000E+000  # angle2 2

    CONSTANT   0.000000000000E+000  # angle2 3

    CONSTANT   0.000000000000E+000  # angle2 4

    CONSTANT   0.000000000000E+000  # angle2 5

    CONSTANT   0.000000000000E+000  # angle2 6

    CONSTANT   0.000000000000E+000  # angle2 7

  angle3 LAYERED IPRN    12
    CONSTANT   0.000000000000E+000  # angle3 1

    CONSTANT   0.000000000000E+000  # angle3 2

    CONSTANT   0.000000000000E+000  # angle3 3

    CONSTANT   0.000000000000E+000  # angle3 4

    CONSTANT   0.000000000000E+000  # angle3 5

    CONSTANT   0.000000000000E+000  # angle3 6

    CONSTANT   0.000000000000E+000  # angle3 7

END GRIDDATA

