# Name File for MODFLOW created on 4/6/2021 by ModelMuse Version 4.3.0.0
BEGIN OPTIONS
  LIST HfbMf6Test.lst
  PRINT_INPUT
  SAVE_FLOWS
END OPTIONS

BEGIN PACKAGES
  DIS6         HfbMf6Test.dis
  IC6          HfbMf6Test.ic
  NPF6         HfbMf6Test.npf
  OC6          HfbMf6Test.oc
  CHD6         HfbMf6Test.chd
  HFB6         HfbMf6Test.hfb
END PACKAGES
