# CHD: Time-Variant Specified-Head package file created on 4/6/2021 by ModelMuse version 4.3.0.0.
BEGIN OPTIONS
    AUXILIARY IFACE
    BOUNDNAMES
    PRINT_INPUT
    SAVE_FLOWS
END OPTIONS

BEGIN DIMENSIONS
  MAXBOUND     4
END DIMENSIONS

BEGIN PERIOD      1
     1     4     5  2.000000000000E+000      0 'Object2'  # Data Set 6: Layer Row Column Shead IFACE boundname
     2     4     5  2.000000000000E+000      0 'Object2'  # Data Set 6: Layer Row Column Shead IFACE boundname
     1    10    10  1.000000000000E+000      0 'Object3'  # Data Set 6: Layer Row Column Shead IFACE boundname
     2    10    10  1.000000000000E+000      0 'Object3'  # Data Set 6: Layer Row Column Shead IFACE boundname
END PERIOD 

