# IMS: Iterative Model Solution file created on 4/6/2021 by ModelMuse version 4.3.0.0.
BEGIN OPTIONS
  PRINT_OPTION ALL
  COMPLEXITY SIMPLE
  CSV_OUTPUT FILEOUT HfbMf6Test2.Solution.CSV
END OPTIONS

BEGIN NONLINEAR
  OUTER_HCLOSE   1.000000000000E-003 
  OUTER_MAXIMUM     25
  UNDER_RELAXATION NONE
  BACKTRACKING_NUMBER     0
END NONLINEAR

BEGIN LINEAR
  INNER_MAXIMUM    50
  INNER_HCLOSE  1.000000000000E-003 
  INNER_RCLOSE  1.000000000000E-001 
  LINEAR_ACCELERATION CG
END LINEAR

