# HFB: Horizontal Flow Barrier package file created on 4/6/2021 by ModelMuse version 4.3.0.0.
BEGIN OPTIONS
    PRINT_INPUT
END OPTIONS

BEGIN DIMENSIONS
  MAXHFB    60
END DIMENSIONS

BEGIN PERIOD      1
     3     3     7     3     4     7  5.083121812005E-010  # (1E-9 in Object0.)/(2 in Object0.)
     4     3     7     4     4     7  5.083121812005E-010  # (1E-9 in Object0.)/(2 in Object0.)
     5     3     7     5     4     7  5.083121812005E-010  # (1E-9 in Object0.)/(2 in Object0.)
     3     4     8     3     3     8  5.083121812005E-010  # (1E-9 in Object0.)/(2 in Object0.)
     4     4     8     4     3     8  5.083121812005E-010  # (1E-9 in Object0.)/(2 in Object0.)
     5     4     8     5     3     8  5.083121812005E-010  # (1E-9 in Object0.)/(2 in Object0.)
     3     4     9     3     3     9  0.000000000000E+000  # (1E-9 in Object0.)/(2 in Object0.)
     3     4     9     3     4    10  6.087390833559E-010  # (1E-9 in Object0.)/(2 in Object0.)
     4     4     9     4     3     9  0.000000000000E+000  # (1E-9 in Object0.)/(2 in Object0.)
     4     4     9     4     4    10  6.087390833559E-010  # (1E-9 in Object0.)/(2 in Object0.)
     5     4     9     5     3     9  0.000000000000E+000  # (1E-9 in Object0.)/(2 in Object0.)
     5     4     9     5     4    10  6.087390833559E-010  # (1E-9 in Object0.)/(2 in Object0.)
     3     5    10     3     5     9  6.087390833559E-010  # (1E-9 in Object0.)/(2 in Object0.)
     4     5    10     4     5     9  6.087390833559E-010  # (1E-9 in Object0.)/(2 in Object0.)
     5     5    10     5     5     9  6.087390833559E-010  # (1E-9 in Object0.)/(2 in Object0.)
     6     6    10     6     5    10  0.000000000000E+000  # (1E-9 in Object0.)/(2 in Object0.)
     7     6    10     7     5    10  0.000000000000E+000  # (1E-9 in Object0.)/(2 in Object0.)
     6     9    10     6     8    10  5.385164807135E-010  # (1E-9 in Object0.)/(2 in Object0.)
     7     9    10     7     8    10  5.385164807135E-010  # (1E-9 in Object0.)/(2 in Object0.)
     6     9     9     6    10     9  5.385164807135E-010  # (1E-9 in Object0.)/(2 in Object0.)
     6     9     9     6     9    10  0.000000000000E+000  # (1E-9 in Object0.)/(2 in Object0.)
     7     9     9     7    10     9  5.385164807135E-010  # (1E-9 in Object0.)/(2 in Object0.)
     7     9     9     7     9    10  0.000000000000E+000  # (1E-9 in Object0.)/(2 in Object0.)
     6     9     8     6    10     8  5.119046795565E-010  # (1E-9 in Object0.)/(2 in Object0.)
     7     9     8     7    10     8  5.119046795565E-010  # (1E-9 in Object0.)/(2 in Object0.)
     6     9     7     6     9     8  0.000000000000E+000  # (1E-9 in Object0.)/(2 in Object0.)
     7     9     7     7     9     8  0.000000000000E+000  # (1E-9 in Object0.)/(2 in Object0.)
     6     9     7     6     8     7  6.061691015503E-010  # (1E-9 in Object0.)/(2 in Object0.)
     7     9     7     7     8     7  6.061691015503E-010  # (1E-9 in Object0.)/(2 in Object0.)
     6     8     6     6     9     6  6.061691015503E-010  # (1E-9 in Object0.)/(2 in Object0.)
     6     8     6     6     8     5  0.000000000000E+000  # (1E-9 in Object0.)/(2 in Object0.)
     7     8     6     7     9     6  6.061691015503E-010  # (1E-9 in Object0.)/(2 in Object0.)
     7     8     6     7     8     5  0.000000000000E+000  # (1E-9 in Object0.)/(2 in Object0.)
     6     7     5     6     8     5  6.061691015503E-010  # (1E-9 in Object0.)/(2 in Object0.)
     7     7     5     7     8     5  6.061691015503E-010  # (1E-9 in Object0.)/(2 in Object0.)
     6     7     4     6     6     4  6.061691015503E-010  # (1E-9 in Object0.)/(2 in Object0.)
     6     7     4     6     7     5  0.000000000000E+000  # (1E-9 in Object0.)/(2 in Object0.)
     7     7     4     7     6     4  6.061691015503E-010  # (1E-9 in Object0.)/(2 in Object0.)
     7     7     4     7     7     5  0.000000000000E+000  # (1E-9 in Object0.)/(2 in Object0.)
     6     6     3     6     6     4  5.399029532264E-010  # (1E-9 in Object0.)/(2 in Object0.)
     7     6     3     7     6     4  5.399029532264E-010  # (1E-9 in Object0.)/(2 in Object0.)
     6     5     3     6     6     3  0.000000000000E+000  # (1E-9 in Object0.)/(2 in Object0.)
     6     5     3     6     5     2  5.399029532264E-010  # (1E-9 in Object0.)/(2 in Object0.)
     7     5     3     7     6     3  0.000000000000E+000  # (1E-9 in Object0.)/(2 in Object0.)
     7     5     3     7     5     2  5.399029532264E-010  # (1E-9 in Object0.)/(2 in Object0.)
     6     4     3     6     4     2  5.003696858176E-010  # (1E-9 in Object0.)/(2 in Object0.)
     7     4     3     7     4     2  5.003696858176E-010  # (1E-9 in Object0.)/(2 in Object0.)
     6     3     3     6     4     3  5.270462766947E-010  # (1E-9 in Object0.)/(2 in Object0.)
     6     3     3     6     3     4  0.000000000000E+000  # (1E-9 in Object0.)/(2 in Object0.)
     7     3     3     7     4     3  5.270462766947E-010  # (1E-9 in Object0.)/(2 in Object0.)
     7     3     3     7     3     4  0.000000000000E+000  # (1E-9 in Object0.)/(2 in Object0.)
     6     3     4     6     2     4  5.044248650141E-010  # (1E-9 in Object0.)/(2 in Object0.)
     7     3     4     7     2     4  5.044248650141E-010  # (1E-9 in Object0.)/(2 in Object0.)
     6     3     5     6     2     5  5.044248650141E-010  # (1E-9 in Object0.)/(2 in Object0.)
     6     3     5     6     3     6  0.000000000000E+000  # (1E-9 in Object0.)/(2 in Object0.)
     7     3     5     7     2     5  5.044248650141E-010  # (1E-9 in Object0.)/(2 in Object0.)
     7     3     5     7     3     6  0.000000000000E+000  # (1E-9 in Object0.)/(2 in Object0.)
     3     3     6     3     4     6  5.340002340823E-010  # (1E-9 in Object0.)/(2 in Object0.)
     4     3     6     4     4     6  5.340002340823E-010  # (1E-9 in Object0.)/(2 in Object0.)
     5     3     6     5     4     6  5.340002340823E-010  # (1E-9 in Object0.)/(2 in Object0.)
END PERIOD 

