# Name File for MODFLOW created on 12/3/2021 by ModelMuse Version 4.3.0.74
BEGIN OPTIONS
  LIST ..\..\output\output.HfbMf6Test\HfbMf6Test.lst
  PRINT_INPUT
  SAVE_FLOWS
END OPTIONS

BEGIN PACKAGES
  DIS6         ..\..\model\model.HfbMf6Test\HfbMf6Test.dis  DIS
  IC6          ..\..\model\model.HfbMf6Test\HfbMf6Test.ic  IC
  NPF6         ..\..\model\model.HfbMf6Test\HfbMf6Test.npf  NPF
  OC6          ..\..\model\model.HfbMf6Test\HfbMf6Test.oc  OC
  CHD6         ..\..\model\model.HfbMf6Test\HfbMf6Test.chd  CHD-1
  HFB6         ..\..\model\model.HfbMf6Test\HfbMf6Test.hfb  HFB
END PACKAGES
