# Name File for MODFLOW created on 12/3/2021 by ModelMuse Version 4.3.0.74
BEGIN OPTIONS
  LIST ..\..\output\output.HfbMf6Test2\HfbMf6Test2.lst
  PRINT_INPUT
  SAVE_FLOWS
END OPTIONS

BEGIN PACKAGES
  DIS6         ..\..\model\model.HfbMf6Test2\HfbMf6Test2.dis  DIS
  IC6          ..\..\model\model.HfbMf6Test2\HfbMf6Test2.ic  IC
  NPF6         ..\..\model\model.HfbMf6Test2\HfbMf6Test2.npf  NPF
  OC6          ..\..\model\model.HfbMf6Test2\HfbMf6Test2.oc  OC
  CHD6         ..\..\model\model.HfbMf6Test2\HfbMf6Test2.chd  CHD-1
  HFB6         ..\..\model\model.HfbMf6Test2\HfbMf6Test2.hfb  HFB
END PACKAGES
