BEGIN OPTIONS
  PRINT_INPUT
END OPTIONS

BEGIN TIMING
  TDIS6 'HfbMf6Test.tdis'
END TIMING

BEGIN MODELS
  GWF6 'HfbMf6Test.nam' 'MODFLOW'
END MODELS

BEGIN EXCHANGES
END EXCHANGES

BEGIN SOLUTIONGROUP     1
  MXITER     1
  IMS6 'HfbMf6Test.ims' 'MODFLOW' 
END SOLUTIONGROUP

