# GHB: General-Head Boundary package file created on 7/10/2020 by ModelMuse version 4.2.0.27.
BEGIN OPTIONS
    AUXILIARY IFACE
    BOUNDNAMES
    PRINT_INPUT
    SAVE_FLOWS
END OPTIONS

BEGIN DIMENSIONS
  MAXBOUND    10
END DIMENSIONS

BEGIN PERIOD      1
     2     1     1  2.000000000000E+000   1.000000000000E+002      0 'Object2'  # Data Set 6: Layer Row Column Bhead Cond IFACE boundname
     2     1     2  2.000000000000E+000   1.000000000000E+002      0 'Object2'  # Data Set 6: Layer Row Column Bhead Cond IFACE boundname
     2     1     3  2.000000000000E+000   1.000000000000E+002      0 'Object2'  # Data Set 6: Layer Row Column Bhead Cond IFACE boundname
     2     1     4  2.000000000000E+000   1.000000000000E+002      0 'Object2'  # Data Set 6: Layer Row Column Bhead Cond IFACE boundname
     2     1     5  2.000000000000E+000   1.000000000000E+002      0 'Object2'  # Data Set 6: Layer Row Column Bhead Cond IFACE boundname
     1     1     6  1.000000000000E+000   1.000000000000E+002      0 'Object2'  # Data Set 6: Layer Row Column Bhead Cond IFACE boundname
     1     1     7  1.000000000000E+000   1.000000000000E+002      0 'Object2'  # Data Set 6: Layer Row Column Bhead Cond IFACE boundname
     1     1     8  1.000000000000E+000   1.000000000000E+002      0 'Object2'  # Data Set 6: Layer Row Column Bhead Cond IFACE boundname
     1     1     9  1.000000000000E+000   1.000000000000E+002      0 'Object2'  # Data Set 6: Layer Row Column Bhead Cond IFACE boundname
     1     1    10  1.000000000000E+000   1.000000000000E+002      0 'Object2'  # Data Set 6: Layer Row Column Bhead Cond IFACE boundname
END PERIOD 

