# Name File for MODFLOW created on 12/3/2021 by ModelMuse Version 4.3.0.74
BEGIN OPTIONS
  LIST HighestActiveModflow.lst
  PRINT_INPUT
  SAVE_FLOWS
END OPTIONS

BEGIN PACKAGES
  DIS6         HighestActiveModflow.dis  DIS
  IC6          HighestActiveModflow.ic  IC
  NPF6         HighestActiveModflow.npf  NPF
  OC6          HighestActiveModflow.oc  OC
  CHD6         HighestActiveModflow.chd  CHD-1
  GHB6         HighestActiveModflow.ghb  GHB-1
END PACKAGES
