# Output Control file created on 7/10/2020 by ModelMuse version 4.2.0.27.
BEGIN OPTIONS
  BUDGET FILEOUT 'HighestActiveModflow.cbc'
  HEAD FILEOUT 'HighestActiveModflow.bhd'
END OPTIONS

BEGIN PERIOD      1
  SAVE HEAD ALL
  PRINT BUDGET ALL
  SAVE BUDGET ALL
END PERIOD 

