# Name File for MODFLOW created on 12/3/2021 by ModelMuse Version 4.3.0.74
BEGIN OPTIONS
  LIST ..\..\output\output.HighestActiveModflow\HighestActiveModflow.lst
  PRINT_INPUT
  SAVE_FLOWS
END OPTIONS

BEGIN PACKAGES
  DIS6         ..\..\model\model.HighestActiveModflow\HighestActiveModflow.dis  DIS
  IC6          ..\..\model\model.HighestActiveModflow\HighestActiveModflow.ic  IC
  NPF6         ..\..\model\model.HighestActiveModflow\HighestActiveModflow.npf  NPF
  OC6          ..\..\model\model.HighestActiveModflow\HighestActiveModflow.oc  OC
  CHD6         ..\..\model\model.HighestActiveModflow\HighestActiveModflow.chd  CHD-1
  GHB6         ..\..\model\model.HighestActiveModflow\HighestActiveModflow.ghb  GHB-1
END PACKAGES
