# CHD: Time-Variant Specified-Head package file created on 7/10/2020 by ModelMuse version 4.2.0.27.
BEGIN OPTIONS
    AUXILIARY IFACE
    BOUNDNAMES
    PRINT_INPUT
    SAVE_FLOWS
END OPTIONS

BEGIN DIMENSIONS
  MAXBOUND     0
END DIMENSIONS

