# Name File for MODFLOW created on 12/14/2015 by ModelMuse
LIST             11 HobTest.lst REPLACE
DATA(BINARY)      9 HobTest.cbc REPLACE
DIS              12 HobTest.dis OLD
BAS6             13 HobTest.bas OLD
OC               39 HobTest.oc OLD
DATA             37 HobTest.fhd REPLACE
DATA             38 HobTest.fdn REPLACE
PCG              18 HobTest.pcg OLD
LPF              14 HobTest.lpf OLD
HOB              41 HobTest.ob_hob OLD
DATA             42 HobTest.hob_out REPLACE
