# Name File for MODFLOW created on 12/14/2015 by ModelMuse
LIST             11 HufTest4.lst REPLACE
DATA(BINARY)      9 HufTest4.cbc REPLACE
DIS              12 HufTest4.dis OLD
BAS6             13 HufTest4.bas OLD
OC               39 HufTest4.oc OLD
DATA             37 HufTest4.fhd REPLACE
DATA             38 HufTest4.fdn REPLACE
PCG              18 HufTest4.pcg OLD
HUF2             53 HufTest4.huf OLD
DATA             54 HufTest4.huf_fhd REPLACE
DATA(BINARY)     55 HufTest4.huf_flow REPLACE
KDEP             56 HufTest4.kdep OLD
CHD              17 HufTest4.chd OLD
GHB              19 HufTest4.ghb OLD
WEL              20 HufTest4.wel OLD
DRN              22 HufTest4.drn OLD
RCH              24 HufTest4.rch OLD
EVT              25 HufTest4.evt OLD
ZONE             15 HufTest4.zon OLD
MULT             16 HufTest4.mlt OLD
PVAL             52 HufTest4.pval OLD
