# Name File for MODFLOW created on 12/14/2015 by ModelMuse
LIST             11 HufTest3.lst REPLACE
DATA(BINARY)      9 HufTest3.cbc REPLACE
DIS              12 HufTest3.dis OLD
BAS6             13 HufTest3.bas OLD
OC               39 HufTest3.oc OLD
DATA             37 HufTest3.fhd REPLACE
DATA             38 HufTest3.fdn REPLACE
PCG              18 HufTest3.pcg OLD
HUF2             53 HufTest3.huf OLD
DATA             54 HufTest3.huf_fhd REPLACE
DATA(BINARY)     55 HufTest3.huf_flow REPLACE
KDEP             56 HufTest3.kdep OLD
CHD              17 HufTest3.chd OLD
GHB              19 HufTest3.ghb OLD
WEL              20 HufTest3.wel OLD
DRN              22 HufTest3.drn OLD
RCH              24 HufTest3.rch OLD
EVT              25 HufTest3.evt OLD
ZONE             15 HufTest3.zon OLD
MULT             16 HufTest3.mlt OLD
PVAL             52 HufTest3.pval OLD
