# Name File for MODFLOW created on 12/14/2015 by ModelMuse
LIST             11 HufTest5.lst REPLACE
DATA(BINARY)      9 HufTest5.cbc REPLACE
DIS              12 HufTest5.dis OLD
BAS6             13 HufTest5.bas OLD
OC               39 HufTest5.oc OLD
DATA             37 HufTest5.fhd REPLACE
DATA             38 HufTest5.fdn REPLACE
PCG              18 HufTest5.pcg OLD
HUF2             53 HufTest5.huf OLD
DATA             54 HufTest5.huf_fhd REPLACE
DATA(BINARY)     55 HufTest5.huf_flow REPLACE
KDEP             56 HufTest5.kdep OLD
LVDA             57 HufTest5.lvda OLD
CHD              17 HufTest5.chd OLD
GHB              19 HufTest5.ghb OLD
WEL              20 HufTest5.wel OLD
DRN              22 HufTest5.drn OLD
RCH              24 HufTest5.rch OLD
EVT              25 HufTest5.evt OLD
ZONE             15 HufTest5.zon OLD
MULT             16 HufTest5.mlt OLD
PVAL             52 HufTest5.pval OLD
