# Name File for MODFLOW created on 12/14/2015 by ModelMuse
LIST             11 HufTest6.lst REPLACE
DATA(BINARY)      9 HufTest6.cbc REPLACE
DIS              12 HufTest6.dis OLD
BAS6             13 HufTest6.bas OLD
OC               39 HufTest6.oc OLD
DATA             37 HufTest6.fhd REPLACE
DATA             38 HufTest6.fdn REPLACE
PCG              18 HufTest6.pcg OLD
HUF2             53 HufTest6.huf OLD
DATA             54 HufTest6.huf_fhd REPLACE
DATA(BINARY)     55 HufTest6.huf_flow REPLACE
KDEP             56 HufTest6.kdep OLD
LVDA             57 HufTest6.lvda OLD
CHD              17 HufTest6.chd OLD
GHB              19 HufTest6.ghb OLD
WEL              20 HufTest6.wel OLD
DRN              22 HufTest6.drn OLD
RCH              24 HufTest6.rch OLD
EVT              25 HufTest6.evt OLD
ZONE             15 HufTest6.zon OLD
MULT             16 HufTest6.mlt OLD
PVAL             52 HufTest6.pval OLD
