# Name File for MODFLOW created on 12/14/2015 by ModelMuse
LIST             11 HufTest7.lst REPLACE
DATA(BINARY)      9 HufTest7.cbc REPLACE
DIS              12 HufTest7.dis OLD
BAS6             13 HufTest7.bas OLD
OC               39 HufTest7.oc OLD
DATA             37 HufTest7.fhd REPLACE
DATA             38 HufTest7.fdn REPLACE
PCG              18 HufTest7.pcg OLD
HUF2             53 HufTest7.huf OLD
DATA             54 HufTest7.huf_fhd REPLACE
DATA(BINARY)     55 HufTest7.huf_flow REPLACE
KDEP             56 HufTest7.kdep OLD
LVDA             57 HufTest7.lvda OLD
CHD              17 HufTest7.chd OLD
GHB              19 HufTest7.ghb OLD
WEL              20 HufTest7.wel OLD
DRN              22 HufTest7.drn OLD
RCH              24 HufTest7.rch OLD
EVT              25 HufTest7.evt OLD
ZONE             15 HufTest7.zon OLD
MULT             16 HufTest7.mlt OLD
PVAL             52 HufTest7.pval OLD
