# Name File for MODFLOW created on 12/14/2015 by ModelMuse
LIST             11 HufTest8.lst REPLACE
DATA(BINARY)      9 HufTest8.cbc REPLACE
DIS              12 HufTest8.dis OLD
BAS6             13 HufTest8.bas OLD
OC               39 HufTest8.oc OLD
DATA             37 HufTest8.fhd REPLACE
DATA             38 HufTest8.fdn REPLACE
PCG              18 HufTest8.pcg OLD
HUF2             53 HufTest8.huf OLD
DATA             54 HufTest8.huf_fhd REPLACE
DATA(BINARY)     55 HufTest8.huf_flow REPLACE
KDEP             56 HufTest8.kdep OLD
LVDA             57 HufTest8.lvda OLD
CHD              17 HufTest8.chd OLD
GHB              19 HufTest8.ghb OLD
WEL              20 HufTest8.wel OLD
DRN              22 HufTest8.drn OLD
RCH              24 HufTest8.rch OLD
EVT              25 HufTest8.evt OLD
ZONE             15 HufTest8.zon OLD
MULT             16 HufTest8.mlt OLD
PVAL             52 HufTest8.pval OLD
