# Name File for MODFLOW created on 12/14/2015 by ModelMuse
LIST             11 HufTest10.lst REPLACE
DATA(BINARY)      9 HufTest10.cbc REPLACE
DIS              12 HufTest10.dis OLD
BAS6             13 HufTest10.bas OLD
OC               39 HufTest10.oc OLD
DATA             37 HufTest10.fhd REPLACE
DATA             38 HufTest10.fdn REPLACE
PCG              18 HufTest10.pcg OLD
HUF2             53 HufTest10.huf OLD
DATA             54 HufTest10.huf_fhd REPLACE
DATA(BINARY)     55 HufTest10.huf_flow REPLACE
KDEP             56 HufTest10.kdep OLD
LVDA             57 HufTest10.lvda OLD
CHD              17 HufTest10.chd OLD
GHB              19 HufTest10.ghb OLD
WEL              20 HufTest10.wel OLD
DRN              22 HufTest10.drn OLD
RCH              24 HufTest10.rch OLD
EVT              25 HufTest10.evt OLD
ZONE             15 HufTest10.zon OLD
MULT             16 HufTest10.mlt OLD
PVAL             52 HufTest10.pval OLD
