# Name File for MODFLOW created on 12/14/2015 by ModelMuse
LIST             11 HufTest9.lst REPLACE
DATA(BINARY)      9 HufTest9.cbc REPLACE
DIS              12 HufTest9.dis OLD
BAS6             13 HufTest9.bas OLD
OC               39 HufTest9.oc OLD
DATA             37 HufTest9.fhd REPLACE
DATA             38 HufTest9.fdn REPLACE
PCG              18 HufTest9.pcg OLD
HUF2             53 HufTest9.huf OLD
DATA             54 HufTest9.huf_fhd REPLACE
DATA(BINARY)     55 HufTest9.huf_flow REPLACE
KDEP             56 HufTest9.kdep OLD
LVDA             57 HufTest9.lvda OLD
CHD              17 HufTest9.chd OLD
GHB              19 HufTest9.ghb OLD
WEL              20 HufTest9.wel OLD
DRN              22 HufTest9.drn OLD
RCH              24 HufTest9.rch OLD
EVT              25 HufTest9.evt OLD
ZONE             15 HufTest9.zon OLD
MULT             16 HufTest9.mlt OLD
PVAL             52 HufTest9.pval OLD
