# Name File for MODFLOW created on 12/14/2015 by ModelMuse
LIST             11 HufTest1.lst REPLACE
DATA(BINARY)      9 HufTest1.cbc REPLACE
DIS              12 HufTest1.dis OLD
BAS6             13 HufTest1.bas OLD
OC               39 HufTest1.oc OLD
DATA             37 HufTest1.fhd REPLACE
DATA             38 HufTest1.fdn REPLACE
PCG              18 HufTest1.pcg OLD
HUF2             53 HufTest1.huf OLD
DATA             54 HufTest1.huf_fhd REPLACE
DATA(BINARY)     55 HufTest1.huf_flow REPLACE
CHD              17 HufTest1.chd OLD
GHB              19 HufTest1.ghb OLD
WEL              20 HufTest1.wel OLD
DRN              22 HufTest1.drn OLD
RCH              24 HufTest1.rch OLD
EVT              25 HufTest1.evt OLD
ZONE             15 HufTest1.zon OLD
MULT             16 HufTest1.mlt OLD
PVAL             52 HufTest1.pval OLD
