# Name File for MODFLOW created on 2/1/2017 by ModelMuse Version 3.8.1.27
LIST             11 ..\..\output\output.HufTest4\HufTest4.lst REPLACE
DATA(BINARY)      9 ..\..\output\output.HufTest4\HufTest4.cbc REPLACE
DIS              12 ..\..\model\model.HufTest4\HufTest4.dis OLD
BAS6             13 ..\..\model\model.HufTest4\HufTest4.bas OLD
OC               39 ..\..\model\model.HufTest4\HufTest4.oc OLD
DATA             37 ..\..\output\output.HufTest4\HufTest4.fhd REPLACE
DATA             38 ..\..\output\output.HufTest4\HufTest4.fdn REPLACE
PCG              18 ..\..\model\model.HufTest4\HufTest4.pcg OLD
HUF2             53 ..\..\model\model.HufTest4\HufTest4.huf OLD
DATA             54 ..\..\output\output.HufTest4\HufTest4.huf_fhd REPLACE
DATA(BINARY)     55 ..\..\output\output.HufTest4\HufTest4.huf_flow REPLACE
KDEP             56 ..\..\model\model.HufTest4\HufTest4.kdep OLD
CHD              17 ..\..\model\model.HufTest4\HufTest4.chd OLD
GHB              19 ..\..\model\model.HufTest4\HufTest4.ghb OLD
WEL              20 ..\..\model\model.HufTest4\HufTest4.wel OLD
DRN              22 ..\..\model\model.HufTest4\HufTest4.drn OLD
RCH              24 ..\..\model\model.HufTest4\HufTest4.rch OLD
EVT              25 ..\..\model\model.HufTest4\HufTest4.evt OLD
ZONE             15 ..\..\model\model.HufTest4\HufTest4.zon OLD
MULT             16 ..\..\model\model.HufTest4\HufTest4.mlt OLD
PVAL             52 ..\..\model\model.HufTest4\HufTest4.pval OLD
