# Name File for MODFLOW created on 2/5/2018 by ModelMuse Version 3.9.0.29
LIST             11 HufTest2.lst REPLACE
DATA(BINARY)      9 HufTest2.cbc REPLACE
DIS              12 HufTest2.dis OLD
BAS6             13 HufTest2.bas OLD
OC               39 HufTest2.oc OLD
DATA             37 HufTest2.fhd REPLACE
DATA             38 HufTest2.fdn REPLACE
PCG              18 HufTest2.pcg OLD
HUF2             53 HufTest2.huf OLD
DATA             54 HufTest2.huf_fhd REPLACE
DATA(BINARY)     55 HufTest2.huf_flow REPLACE
CHD              17 HufTest2.chd OLD
WEL              20 HufTest2.wel OLD
RCH              24 HufTest2.rch OLD
EVT              25 HufTest2.evt OLD
ZONE             15 HufTest2.zon OLD
MULT             16 HufTest2.mlt OLD
PVAL             52 HufTest2.pval OLD
