# Name File for MODFLOW created on 12/14/2015 by ModelMuse
LIST             11 HydmodTest.lst REPLACE
DATA(BINARY)      9 HydmodTest.cbc REPLACE
DIS              12 HydmodTest.dis OLD
BAS6             13 HydmodTest.bas OLD
OC               39 HydmodTest.oc OLD
DATA             37 HydmodTest.fhd REPLACE
DATA             38 HydmodTest.fdn REPLACE
PCG              18 HydmodTest.pcg OLD
LPF              14 HydmodTest.lpf OLD
CHD              17 HydmodTest.chd OLD
SFR              29 HydmodTest.sfr OLD
HYD              69 HydmodTest.hyd OLD
DATA(BINARY)    129 HydmodTest.hyd_out REPLACE
SUB              65 HydmodTest.sub OLD
