# Name File for MODFLOW created on 2/1/2017 by ModelMuse Version 3.8.1.27
LIST             11 ..\..\output\output.HydmodTest\HydmodTest.lst REPLACE
DATA(BINARY)      9 ..\..\output\output.HydmodTest\HydmodTest.cbc REPLACE
DIS              12 ..\..\model\model.HydmodTest\HydmodTest.dis OLD
BAS6             13 ..\..\model\model.HydmodTest\HydmodTest.bas OLD
OC               39 ..\..\model\model.HydmodTest\HydmodTest.oc OLD
DATA             37 ..\..\output\output.HydmodTest\HydmodTest.fhd REPLACE
DATA             38 ..\..\output\output.HydmodTest\HydmodTest.fdn REPLACE
PCG              18 ..\..\model\model.HydmodTest\HydmodTest.pcg OLD
LPF              14 ..\..\model\model.HydmodTest\HydmodTest.lpf OLD
CHD              17 ..\..\model\model.HydmodTest\HydmodTest.chd OLD
SFR              29 ..\..\model\model.HydmodTest\HydmodTest.sfr OLD
HYD              69 ..\..\model\model.HydmodTest\HydmodTest.hyd OLD
DATA(BINARY)    129 ..\..\output\output.HydmodTest\HydmodTest.hyd_out REPLACE
SUB              65 ..\..\model\model.HydmodTest\HydmodTest.sub OLD
