# Name File for MODFLOW created on 5/18/2019 by ModelMuse Version 3.10.0.60
LIST             11 ImportedP3.lst REPLACE
DATA(BINARY)      9 ImportedP3.cbc REPLACE
DIS              12 ImportedP3.dis OLD
BAS6             13 ImportedP3.bas OLD
OC               39 ImportedP3.oc OLD
DATA             37 ImportedP3.fhd REPLACE
DATA             38 ImportedP3.fdn REPLACE
SIP              35 ImportedP3.sip OLD
BCF6             64 ImportedP3.bcf OLD
LMT6            135 ImportedP3.lmt OLD
CHD              17 ImportedP3.chd OLD
WEL              20 ImportedP3.wel OLD
