# Name File for MODFLOW created on 12/14/2015 by ModelMuse
LIST             11 ImportedKdep.lst REPLACE
DATA(BINARY)      9 ImportedKdep.cbc REPLACE
DIS              12 ImportedKdep.dis OLD
BAS6             13 ImportedKdep.bas OLD
OC               39 ImportedKdep.oc OLD
DATA             37 ImportedKdep.fhd REPLACE
DATA             38 ImportedKdep.fdn REPLACE
PCG              18 ImportedKdep.pcg OLD
HUF2             53 ImportedKdep.huf OLD
KDEP             56 ImportedKdep.kdep OLD
GHB              19 ImportedKdep.ghb OLD
GBOB             46 ImportedKdep.ob_gbob OLD
DATA             47 ImportedKdep.gbob_out REPLACE
WEL              20 ImportedKdep.wel OLD
DRN              22 ImportedKdep.drn OLD
DROB             44 ImportedKdep.ob_drob OLD
DATA             45 ImportedKdep.drob_out REPLACE
RCH              24 ImportedKdep.rch OLD
EVT              25 ImportedKdep.evt OLD
ZONE             15 ImportedKdep.zon OLD
MULT             16 ImportedKdep.mlt OLD
HOB              41 ImportedKdep.ob_hob OLD
DATA             42 ImportedKdep.hob_out REPLACE
PVAL             52 ImportedKdep.pval OLD
