# Name File for MODFLOW created on 5/18/2019 by ModelMuse Version 3.10.0.60
LIST             11 ..\..\output\output.ImportMt3dmsReinject\ImportMt3dmsReinject.lst REPLACE
DATA(BINARY)      9 ..\..\output\output.ImportMt3dmsReinject\ImportMt3dmsReinject.cbc REPLACE
DIS              12 ..\..\model\model.ImportMt3dmsReinject\ImportMt3dmsReinject.dis OLD
BAS6             13 ..\..\model\model.ImportMt3dmsReinject\ImportMt3dmsReinject.bas OLD
OC               39 ..\..\model\model.ImportMt3dmsReinject\ImportMt3dmsReinject.oc OLD
DATA             37 ..\..\output\output.ImportMt3dmsReinject\ImportMt3dmsReinject.fhd REPLACE
DATA             38 ..\..\output\output.ImportMt3dmsReinject\ImportMt3dmsReinject.fdn REPLACE
SIP              35 ..\..\model\model.ImportMt3dmsReinject\ImportMt3dmsReinject.sip OLD
BCF6             64 ..\..\model\model.ImportMt3dmsReinject\ImportMt3dmsReinject.bcf OLD
LMT6            135 ..\..\model\model.ImportMt3dmsReinject\ImportMt3dmsReinject.lmt OLD
CHD              17 ..\..\model\model.ImportMt3dmsReinject\ImportMt3dmsReinject.chd OLD
WEL              20 ..\..\model\model.ImportMt3dmsReinject\ImportMt3dmsReinject.wel OLD
