# Name File for MODFLOW created on 12/14/2015 by ModelMuse
LIST             11 ImportedSub3.lst REPLACE
DATA(BINARY)      9 ImportedSub3.cbc REPLACE
DIS              12 ImportedSub3.dis OLD
BAS6             13 ImportedSub3.bas OLD
OC               39 ImportedSub3.oc OLD
DATA             37 ImportedSub3.fhd REPLACE
DATA             38 ImportedSub3.fdn REPLACE
SIP              35 ImportedSub3.sip OLD
BCF6             64 ImportedSub3.bcf OLD
CHD              17 ImportedSub3.chd OLD
WEL              20 ImportedSub3.wel OLD
SUB              65 ImportedSub3.sub OLD
DATA(BINARY)    110 ImportedSub3.Sub_Out REPLACE
