# Name File for MT3DMS created on 7/18/2024 by ModelMuse
LIST 16 ImportMt3dmsTob.mls
FTL 10 ImportMt3dmsTob.ftl
DATA 17 ImportMt3dmsTob.cnf
BTN 1 ImportMt3dmsTob.btn
DATA(BINARY) 201 ImportMt3dmsTob_Chem1.ucn
DATA 601 ImportMt3dmsTob_Chem1._mas
DATA 401 ImportMt3dmsTob_Chem1.mto
ADV 2 ImportMt3dmsTob.adv
DSP 3 ImportMt3dmsTob.dsp
SSM 4 ImportMt3dmsTob.ssm
GCG 9 ImportMt3dmsTob.gcg
TOB 12 ImportMt3dmsTob.tob
DATA 29 ImportMt3dmsTob.ocn
DATA 30 ImportMt3dmsTob.mfx
DATA(BINARY) 31 ImportMt3dmsTob._pst
