# Name File for MT3DMS created on 11/16/2019 by ModelMuse
LIST 16 ..\..\output\output.ImportMt3dmsTob_MT3DMS\ImportMt3dmsTob.mls
FTL 10 ..\..\output\output.ImportMt3dmsTob\ImportMt3dmsTob.ftl
DATA 17 ..\..\output\output.ImportMt3dmsTob_MT3DMS\ImportMt3dmsTob.cnf
BTN 1 ..\..\model\model.ImportMt3dmsTob_MT3DMS\ImportMt3dmsTob.btn
DATA(BINARY) 201 ..\..\output\output.ImportMt3dmsTob_MT3DMS\ImportMt3dmsTob_Chem1.ucn
DATA 601 ..\..\output\output.ImportMt3dmsTob_MT3DMS\ImportMt3dmsTob_Chem1._mas
DATA 401 ..\..\output\output.ImportMt3dmsTob_MT3DMS\ImportMt3dmsTob_Chem1.mto
ADV 2 ..\..\model\model.ImportMt3dmsTob_MT3DMS\ImportMt3dmsTob.adv
DSP 3 ..\..\model\model.ImportMt3dmsTob_MT3DMS\ImportMt3dmsTob.dsp
SSM 4 ..\..\model\model.ImportMt3dmsTob_MT3DMS\ImportMt3dmsTob.ssm
GCG 9 ..\..\model\model.ImportMt3dmsTob_MT3DMS\ImportMt3dmsTob.gcg
TOB 12 ..\..\model\model.ImportMt3dmsTob_MT3DMS\ImportMt3dmsTob.tob
DATA 29 ..\..\output\output.ImportMt3dmsTob_MT3DMS\ImportMt3dmsTob.ocn
DATA 30 ..\..\output\output.ImportMt3dmsTob_MT3DMS\ImportMt3dmsTob.mfx
DATA(BINARY) 31 ..\..\output\output.ImportMt3dmsTob_MT3DMS\ImportMt3dmsTob.pst
