# Name File for MODFLOW created on 5/18/2019 by ModelMuse Version 3.10.0.60
LIST             11 ImportMt3dmsZeroth.lst REPLACE
DATA(BINARY)      9 ImportMt3dmsZeroth.cbc REPLACE
DIS              12 ImportMt3dmsZeroth.dis OLD
BAS6             13 ImportMt3dmsZeroth.bas OLD
OC               39 ImportMt3dmsZeroth.oc OLD
DATA             37 ImportMt3dmsZeroth.fhd REPLACE
DATA             38 ImportMt3dmsZeroth.fdn REPLACE
SIP              35 ImportMt3dmsZeroth.sip OLD
BCF6             64 ImportMt3dmsZeroth.bcf OLD
LMT6            135 ImportMt3dmsZeroth.lmt OLD
CHD              17 ImportMt3dmsZeroth.chd OLD
