# UPW: Upstream Weighting package file created on 12/12/2015 by ModelMuse version 3.6.3.5.
# MODFLOW2000 Layer Property Flow (LPF) Package
     9 -9.999000000000E+003      0     1 # Data Set 1, IUPWCB HDRY NPUPW IPHDRY
     1     1 # LAYTYP
     0     0 # LAYAVG
    -1    -1 # CHANI
     1     1 # LAYVKA
     0     0 # LAYWET
INTERNAL 1.0 (FREE)       12 # HK Layer 1 Layer 1
  1.000000000000E+001   1.000000000000E+001   1.000000000000E+001   1.000000000000E+001   1.000000000000E+001   1.000000000000E+001 
  1.000000000000E+001   5.000000000000E+000   5.000000000000E+000   1.000000000000E+001   1.000000000000E+001   1.000000000000E+001 
  1.000000000000E+001   1.000000000000E+001   5.000000000000E+000   1.000000000000E+001   1.000000000000E+001   1.000000000000E+001 
  1.000000000000E+001   5.000000000000E+000   5.000000000000E+000   1.000000000000E+001   1.000000000000E+001   1.000000000000E+001 
  1.000000000000E+001   1.000000000000E+001   1.000000000000E+001   1.000000000000E+001   1.000000000000E+001   1.000000000000E+001 
  1.000000000000E+001   1.000000000000E+001   1.000000000000E+001   1.000000000000E+001   1.000000000000E+001   1.000000000000E+001 
CONSTANT     1.000000000000E+000  # HANI Layer 1 Layer 1
CONSTANT     1.000000000000E+001  # VKA Layer 1 Layer 1
CONSTANT     9.999999700000E-006  # SS Layer 1 Layer 1
CONSTANT     2.000000000000E-001  # SY Layer 1 Layer 1
CONSTANT     5.000000000000E+000  # HK Layer 2 Layer 2
CONSTANT     1.000000000000E+000  # HANI Layer 2 Layer 2
CONSTANT     1.000000000000E+001  # VKA Layer 2 Layer 2
CONSTANT     9.999999700000E-006  # SS Layer 2 Layer 2
CONSTANT     2.000000000000E-001  # SY Layer 2 Layer 2
