# Name File for MT3DMS created on 9/19/2020 by ModelMuse
LIST 16 ..\..\output\output.ImportedP1_Case1d_MT3DMS\ImportedP1_Case1d.mls
FTL 10 ..\..\output\output.ImportedP1_Case1d\ImportedP1_Case1d.ftl
DATA 17 ..\..\output\output.ImportedP1_Case1d_MT3DMS\ImportedP1_Case1d.cnf
BTN 1 ..\..\model\model.ImportedP1_Case1d_MT3DMS\ImportedP1_Case1d.btn
DATA(BINARY) 201 ..\..\output\output.ImportedP1_Case1d_MT3DMS\ImportedP1_Case1d_Comp1.ucn
DATA(BINARY) 301 ..\..\output\output.ImportedP1_Case1d_MT3DMS\ImportedP1_Case1d_Comp1_S.ucn
DATA 601 ..\..\output\output.ImportedP1_Case1d_MT3DMS\ImportedP1_Case1d_Comp1._mas
DATA 401 ..\..\output\output.ImportedP1_Case1d_MT3DMS\ImportedP1_Case1d_Comp1.mto
ADV 2 ..\..\model\model.ImportedP1_Case1d_MT3DMS\ImportedP1_Case1d.adv
DSP 3 ..\..\model\model.ImportedP1_Case1d_MT3DMS\ImportedP1_Case1d.dsp
SSM 4 ..\..\model\model.ImportedP1_Case1d_MT3DMS\ImportedP1_Case1d.ssm
RCT 8 ..\..\model\model.ImportedP1_Case1d_MT3DMS\ImportedP1_Case1d.rct
GCG 9 ..\..\model\model.ImportedP1_Case1d_MT3DMS\ImportedP1_Case1d.gcg
