# Name File for MODFLOW created on 12/14/2015 by ModelMuse
LIST             11 ImportedSub.lst REPLACE
DATA(BINARY)      9 ImportedSub.cbc REPLACE
DIS              12 ImportedSub.dis OLD
BAS6             13 ImportedSub.bas OLD
OC               39 ImportedSub.oc OLD
DATA             37 ImportedSub.fhd REPLACE
DATA             38 ImportedSub.fdn REPLACE
SIP              35 ImportedSub.sip OLD
BCF6             64 ImportedSub.bcf OLD
CHD              17 ImportedSub.chd OLD
WEL              20 ImportedSub.wel OLD
SUB              65 ImportedSub.sub OLD
DATA(BINARY)    110 ImportedSub.SubSubOut REPLACE
DATA(BINARY)    111 ImportedSub.SubComMlOut REPLACE
DATA(BINARY)    112 ImportedSub.SubComIsOut REPLACE
