# Name File for MODFLOW created on 5/18/2019 by ModelMuse Version 3.10.0.60
LIST             11 ..\..\output\output.ImportMt3dmsTob\ImportMt3dmsTob.lst REPLACE
DATA(BINARY)      9 ..\..\output\output.ImportMt3dmsTob\ImportMt3dmsTob.cbc REPLACE
DIS              12 ..\..\model\model.ImportMt3dmsTob\ImportMt3dmsTob.dis OLD
BAS6             13 ..\..\model\model.ImportMt3dmsTob\ImportMt3dmsTob.bas OLD
OC               39 ..\..\model\model.ImportMt3dmsTob\ImportMt3dmsTob.oc OLD
DATA             37 ..\..\output\output.ImportMt3dmsTob\ImportMt3dmsTob.fhd REPLACE
DATA             38 ..\..\output\output.ImportMt3dmsTob\ImportMt3dmsTob.fdn REPLACE
SIP              35 ..\..\model\model.ImportMt3dmsTob\ImportMt3dmsTob.sip OLD
BCF6             64 ..\..\model\model.ImportMt3dmsTob\ImportMt3dmsTob.bcf OLD
LMT6            135 ..\..\model\model.ImportMt3dmsTob\ImportMt3dmsTob.lmt OLD
CHD              17 ..\..\model\model.ImportMt3dmsTob\ImportMt3dmsTob.chd OLD
WEL              20 ..\..\model\model.ImportMt3dmsTob\ImportMt3dmsTob.wel OLD
