# GHB: General-Head Boundary package file created on 12/12/2015 by ModelMuse version 3.6.3.5.
# MODFLOW2000 General Head Boundary Package
     8     9 AUXILIARY IFACE # DataSet 2: MXACTC IGHBCB Option
     8     0 # Data Set 5: ITMP NP Stress period 1
     1     1     1  1.534000000000E+000   1.000000000000E+004      0 # Data Set 6: Layer Row Column Bhead Cond IFACE
     1     2     1  1.534000000000E+000   1.000000000000E+004      0 # Data Set 6: Layer Row Column Bhead Cond IFACE
     1     3     1  1.534000000000E+000   1.000000000000E+004      0 # Data Set 6: Layer Row Column Bhead Cond IFACE
     1     4     1  1.534000000000E+000   1.000000000000E+004      0 # Data Set 6: Layer Row Column Bhead Cond IFACE
     1     5     1  1.534000000000E+000   1.000000000000E+004      0 # Data Set 6: Layer Row Column Bhead Cond IFACE
     1     6     1  1.534000000000E+000   1.000000000000E+004      0 # Data Set 6: Layer Row Column Bhead Cond IFACE
     1     5     6  5.100000000000E-001   1.000000000000E+003      0 # Data Set 6: Layer Row Column Bhead Cond IFACE
     2     5     6  6.100000000000E-001   1.000000000000E+003      0 # Data Set 6: Layer Row Column Bhead Cond IFACE
    -1     0 # Data Set 5: ITMP NP Stress period 2
    -1     0 # Data Set 5: ITMP NP Stress period 3
    -1     0 # Data Set 5: ITMP NP Stress period 4
    -1     0 # Data Set 5: ITMP NP Stress period 5
    -1     0 # Data Set 5: ITMP NP Stress period 6
    -1     0 # Data Set 5: ITMP NP Stress period 7
    -1     0 # Data Set 5: ITMP NP Stress period 8
    -1     0 # Data Set 5: ITMP NP Stress period 9
    -1     0 # Data Set 5: ITMP NP Stress period 10
    -1     0 # Data Set 5: ITMP NP Stress period 11
    -1     0 # Data Set 5: ITMP NP Stress period 12
    -1     0 # Data Set 5: ITMP NP Stress period 13
    -1     0 # Data Set 5: ITMP NP Stress period 14
    -1     0 # Data Set 5: ITMP NP Stress period 15
    -1     0 # Data Set 5: ITMP NP Stress period 16
    -1     0 # Data Set 5: ITMP NP Stress period 17
    -1     0 # Data Set 5: ITMP NP Stress period 18
    -1     0 # Data Set 5: ITMP NP Stress period 19
    -1     0 # Data Set 5: ITMP NP Stress period 20
    -1     0 # Data Set 5: ITMP NP Stress period 21
    -1     0 # Data Set 5: ITMP NP Stress period 22
    -1     0 # Data Set 5: ITMP NP Stress period 23
    -1     0 # Data Set 5: ITMP NP Stress period 24
    -1     0 # Data Set 5: ITMP NP Stress period 25
    -1     0 # Data Set 5: ITMP NP Stress period 26
    -1     0 # Data Set 5: ITMP NP Stress period 27
    -1     0 # Data Set 5: ITMP NP Stress period 28
    -1     0 # Data Set 5: ITMP NP Stress period 29
    -1     0 # Data Set 5: ITMP NP Stress period 30
    -1     0 # Data Set 5: ITMP NP Stress period 31
    -1     0 # Data Set 5: ITMP NP Stress period 32
    -1     0 # Data Set 5: ITMP NP Stress period 33
    -1     0 # Data Set 5: ITMP NP Stress period 34
    -1     0 # Data Set 5: ITMP NP Stress period 35
    -1     0 # Data Set 5: ITMP NP Stress period 36
    -1     0 # Data Set 5: ITMP NP Stress period 37
    -1     0 # Data Set 5: ITMP NP Stress period 38
    -1     0 # Data Set 5: ITMP NP Stress period 39
    -1     0 # Data Set 5: ITMP NP Stress period 40
    -1     0 # Data Set 5: ITMP NP Stress period 41
    -1     0 # Data Set 5: ITMP NP Stress period 42
    -1     0 # Data Set 5: ITMP NP Stress period 43
    -1     0 # Data Set 5: ITMP NP Stress period 44
    -1     0 # Data Set 5: ITMP NP Stress period 45
    -1     0 # Data Set 5: ITMP NP Stress period 46
    -1     0 # Data Set 5: ITMP NP Stress period 47
    -1     0 # Data Set 5: ITMP NP Stress period 48
    -1     0 # Data Set 5: ITMP NP Stress period 49
    -1     0 # Data Set 5: ITMP NP Stress period 50
    -1     0 # Data Set 5: ITMP NP Stress period 51
    -1     0 # Data Set 5: ITMP NP Stress period 52
    -1     0 # Data Set 5: ITMP NP Stress period 53
    -1     0 # Data Set 5: ITMP NP Stress period 54
    -1     0 # Data Set 5: ITMP NP Stress period 55
    -1     0 # Data Set 5: ITMP NP Stress period 56
    -1     0 # Data Set 5: ITMP NP Stress period 57
    -1     0 # Data Set 5: ITMP NP Stress period 58
    -1     0 # Data Set 5: ITMP NP Stress period 59
    -1     0 # Data Set 5: ITMP NP Stress period 60
    -1     0 # Data Set 5: ITMP NP Stress period 61
    -1     0 # Data Set 5: ITMP NP Stress period 62
    -1     0 # Data Set 5: ITMP NP Stress period 63
    -1     0 # Data Set 5: ITMP NP Stress period 64
    -1     0 # Data Set 5: ITMP NP Stress period 65
    -1     0 # Data Set 5: ITMP NP Stress period 66
    -1     0 # Data Set 5: ITMP NP Stress period 67
    -1     0 # Data Set 5: ITMP NP Stress period 68
    -1     0 # Data Set 5: ITMP NP Stress period 69
    -1     0 # Data Set 5: ITMP NP Stress period 70
    -1     0 # Data Set 5: ITMP NP Stress period 71
    -1     0 # Data Set 5: ITMP NP Stress period 72
    -1     0 # Data Set 5: ITMP NP Stress period 73
    -1     0 # Data Set 5: ITMP NP Stress period 74
    -1     0 # Data Set 5: ITMP NP Stress period 75
    -1     0 # Data Set 5: ITMP NP Stress period 76
    -1     0 # Data Set 5: ITMP NP Stress period 77
    -1     0 # Data Set 5: ITMP NP Stress period 78
    -1     0 # Data Set 5: ITMP NP Stress period 79
    -1     0 # Data Set 5: ITMP NP Stress period 80
    -1     0 # Data Set 5: ITMP NP Stress period 81
    -1     0 # Data Set 5: ITMP NP Stress period 82
    -1     0 # Data Set 5: ITMP NP Stress period 83
    -1     0 # Data Set 5: ITMP NP Stress period 84
    -1     0 # Data Set 5: ITMP NP Stress period 85
    -1     0 # Data Set 5: ITMP NP Stress period 86
    -1     0 # Data Set 5: ITMP NP Stress period 87
    -1     0 # Data Set 5: ITMP NP Stress period 88
    -1     0 # Data Set 5: ITMP NP Stress period 89
    -1     0 # Data Set 5: ITMP NP Stress period 90
    -1     0 # Data Set 5: ITMP NP Stress period 91
    -1     0 # Data Set 5: ITMP NP Stress period 92
    -1     0 # Data Set 5: ITMP NP Stress period 93
    -1     0 # Data Set 5: ITMP NP Stress period 94
    -1     0 # Data Set 5: ITMP NP Stress period 95
    -1     0 # Data Set 5: ITMP NP Stress period 96
    -1     0 # Data Set 5: ITMP NP Stress period 97
    -1     0 # Data Set 5: ITMP NP Stress period 98
    -1     0 # Data Set 5: ITMP NP Stress period 99
    -1     0 # Data Set 5: ITMP NP Stress period 100
    -1     0 # Data Set 5: ITMP NP Stress period 101
    -1     0 # Data Set 5: ITMP NP Stress period 102
    -1     0 # Data Set 5: ITMP NP Stress period 103
    -1     0 # Data Set 5: ITMP NP Stress period 104
    -1     0 # Data Set 5: ITMP NP Stress period 105
    -1     0 # Data Set 5: ITMP NP Stress period 106
    -1     0 # Data Set 5: ITMP NP Stress period 107
    -1     0 # Data Set 5: ITMP NP Stress period 108
    -1     0 # Data Set 5: ITMP NP Stress period 109
    -1     0 # Data Set 5: ITMP NP Stress period 110
    -1     0 # Data Set 5: ITMP NP Stress period 111
    -1     0 # Data Set 5: ITMP NP Stress period 112
    -1     0 # Data Set 5: ITMP NP Stress period 113
    -1     0 # Data Set 5: ITMP NP Stress period 114
    -1     0 # Data Set 5: ITMP NP Stress period 115
    -1     0 # Data Set 5: ITMP NP Stress period 116
    -1     0 # Data Set 5: ITMP NP Stress period 117
    -1     0 # Data Set 5: ITMP NP Stress period 118
    -1     0 # Data Set 5: ITMP NP Stress period 119
    -1     0 # Data Set 5: ITMP NP Stress period 120
    -1     0 # Data Set 5: ITMP NP Stress period 121
    -1     0 # Data Set 5: ITMP NP Stress period 122
    -1     0 # Data Set 5: ITMP NP Stress period 123
    -1     0 # Data Set 5: ITMP NP Stress period 124
    -1     0 # Data Set 5: ITMP NP Stress period 125
    -1     0 # Data Set 5: ITMP NP Stress period 126
    -1     0 # Data Set 5: ITMP NP Stress period 127
    -1     0 # Data Set 5: ITMP NP Stress period 128
    -1     0 # Data Set 5: ITMP NP Stress period 129
    -1     0 # Data Set 5: ITMP NP Stress period 130
    -1     0 # Data Set 5: ITMP NP Stress period 131
    -1     0 # Data Set 5: ITMP NP Stress period 132
    -1     0 # Data Set 5: ITMP NP Stress period 133
    -1     0 # Data Set 5: ITMP NP Stress period 134
    -1     0 # Data Set 5: ITMP NP Stress period 135
    -1     0 # Data Set 5: ITMP NP Stress period 136
    -1     0 # Data Set 5: ITMP NP Stress period 137
    -1     0 # Data Set 5: ITMP NP Stress period 138
    -1     0 # Data Set 5: ITMP NP Stress period 139
    -1     0 # Data Set 5: ITMP NP Stress period 140
    -1     0 # Data Set 5: ITMP NP Stress period 141
    -1     0 # Data Set 5: ITMP NP Stress period 142
    -1     0 # Data Set 5: ITMP NP Stress period 143
    -1     0 # Data Set 5: ITMP NP Stress period 144
    -1     0 # Data Set 5: ITMP NP Stress period 145
    -1     0 # Data Set 5: ITMP NP Stress period 146
    -1     0 # Data Set 5: ITMP NP Stress period 147
    -1     0 # Data Set 5: ITMP NP Stress period 148
    -1     0 # Data Set 5: ITMP NP Stress period 149
    -1     0 # Data Set 5: ITMP NP Stress period 150
    -1     0 # Data Set 5: ITMP NP Stress period 151
    -1     0 # Data Set 5: ITMP NP Stress period 152
    -1     0 # Data Set 5: ITMP NP Stress period 153
    -1     0 # Data Set 5: ITMP NP Stress period 154
    -1     0 # Data Set 5: ITMP NP Stress period 155
    -1     0 # Data Set 5: ITMP NP Stress period 156
    -1     0 # Data Set 5: ITMP NP Stress period 157
    -1     0 # Data Set 5: ITMP NP Stress period 158
    -1     0 # Data Set 5: ITMP NP Stress period 159
    -1     0 # Data Set 5: ITMP NP Stress period 160
    -1     0 # Data Set 5: ITMP NP Stress period 161
    -1     0 # Data Set 5: ITMP NP Stress period 162
    -1     0 # Data Set 5: ITMP NP Stress period 163
    -1     0 # Data Set 5: ITMP NP Stress period 164
    -1     0 # Data Set 5: ITMP NP Stress period 165
    -1     0 # Data Set 5: ITMP NP Stress period 166
    -1     0 # Data Set 5: ITMP NP Stress period 167
    -1     0 # Data Set 5: ITMP NP Stress period 168
    -1     0 # Data Set 5: ITMP NP Stress period 169
    -1     0 # Data Set 5: ITMP NP Stress period 170
    -1     0 # Data Set 5: ITMP NP Stress period 171
    -1     0 # Data Set 5: ITMP NP Stress period 172
    -1     0 # Data Set 5: ITMP NP Stress period 173
    -1     0 # Data Set 5: ITMP NP Stress period 174
    -1     0 # Data Set 5: ITMP NP Stress period 175
    -1     0 # Data Set 5: ITMP NP Stress period 176
    -1     0 # Data Set 5: ITMP NP Stress period 177
    -1     0 # Data Set 5: ITMP NP Stress period 178
    -1     0 # Data Set 5: ITMP NP Stress period 179
    -1     0 # Data Set 5: ITMP NP Stress period 180
    -1     0 # Data Set 5: ITMP NP Stress period 181
    -1     0 # Data Set 5: ITMP NP Stress period 182
    -1     0 # Data Set 5: ITMP NP Stress period 183
    -1     0 # Data Set 5: ITMP NP Stress period 184
    -1     0 # Data Set 5: ITMP NP Stress period 185
    -1     0 # Data Set 5: ITMP NP Stress period 186
    -1     0 # Data Set 5: ITMP NP Stress period 187
    -1     0 # Data Set 5: ITMP NP Stress period 188
    -1     0 # Data Set 5: ITMP NP Stress period 189
    -1     0 # Data Set 5: ITMP NP Stress period 190
    -1     0 # Data Set 5: ITMP NP Stress period 191
    -1     0 # Data Set 5: ITMP NP Stress period 192
    -1     0 # Data Set 5: ITMP NP Stress period 193
    -1     0 # Data Set 5: ITMP NP Stress period 194
    -1     0 # Data Set 5: ITMP NP Stress period 195
    -1     0 # Data Set 5: ITMP NP Stress period 196
    -1     0 # Data Set 5: ITMP NP Stress period 197
    -1     0 # Data Set 5: ITMP NP Stress period 198
    -1     0 # Data Set 5: ITMP NP Stress period 199
    -1     0 # Data Set 5: ITMP NP Stress period 200
    -1     0 # Data Set 5: ITMP NP Stress period 201
    -1     0 # Data Set 5: ITMP NP Stress period 202
    -1     0 # Data Set 5: ITMP NP Stress period 203
    -1     0 # Data Set 5: ITMP NP Stress period 204
    -1     0 # Data Set 5: ITMP NP Stress period 205
    -1     0 # Data Set 5: ITMP NP Stress period 206
    -1     0 # Data Set 5: ITMP NP Stress period 207
    -1     0 # Data Set 5: ITMP NP Stress period 208
    -1     0 # Data Set 5: ITMP NP Stress period 209
    -1     0 # Data Set 5: ITMP NP Stress period 210
    -1     0 # Data Set 5: ITMP NP Stress period 211
    -1     0 # Data Set 5: ITMP NP Stress period 212
    -1     0 # Data Set 5: ITMP NP Stress period 213
    -1     0 # Data Set 5: ITMP NP Stress period 214
    -1     0 # Data Set 5: ITMP NP Stress period 215
    -1     0 # Data Set 5: ITMP NP Stress period 216
    -1     0 # Data Set 5: ITMP NP Stress period 217
    -1     0 # Data Set 5: ITMP NP Stress period 218
    -1     0 # Data Set 5: ITMP NP Stress period 219
    -1     0 # Data Set 5: ITMP NP Stress period 220
    -1     0 # Data Set 5: ITMP NP Stress period 221
    -1     0 # Data Set 5: ITMP NP Stress period 222
    -1     0 # Data Set 5: ITMP NP Stress period 223
    -1     0 # Data Set 5: ITMP NP Stress period 224
    -1     0 # Data Set 5: ITMP NP Stress period 225
    -1     0 # Data Set 5: ITMP NP Stress period 226
    -1     0 # Data Set 5: ITMP NP Stress period 227
    -1     0 # Data Set 5: ITMP NP Stress period 228
    -1     0 # Data Set 5: ITMP NP Stress period 229
    -1     0 # Data Set 5: ITMP NP Stress period 230
    -1     0 # Data Set 5: ITMP NP Stress period 231
    -1     0 # Data Set 5: ITMP NP Stress period 232
    -1     0 # Data Set 5: ITMP NP Stress period 233
    -1     0 # Data Set 5: ITMP NP Stress period 234
    -1     0 # Data Set 5: ITMP NP Stress period 235
    -1     0 # Data Set 5: ITMP NP Stress period 236
    -1     0 # Data Set 5: ITMP NP Stress period 237
    -1     0 # Data Set 5: ITMP NP Stress period 238
    -1     0 # Data Set 5: ITMP NP Stress period 239
    -1     0 # Data Set 5: ITMP NP Stress period 240
    -1     0 # Data Set 5: ITMP NP Stress period 241
    -1     0 # Data Set 5: ITMP NP Stress period 242
    -1     0 # Data Set 5: ITMP NP Stress period 243
    -1     0 # Data Set 5: ITMP NP Stress period 244
    -1     0 # Data Set 5: ITMP NP Stress period 245
    -1     0 # Data Set 5: ITMP NP Stress period 246
    -1     0 # Data Set 5: ITMP NP Stress period 247
    -1     0 # Data Set 5: ITMP NP Stress period 248
    -1     0 # Data Set 5: ITMP NP Stress period 249
    -1     0 # Data Set 5: ITMP NP Stress period 250
    -1     0 # Data Set 5: ITMP NP Stress period 251
    -1     0 # Data Set 5: ITMP NP Stress period 252
    -1     0 # Data Set 5: ITMP NP Stress period 253
    -1     0 # Data Set 5: ITMP NP Stress period 254
    -1     0 # Data Set 5: ITMP NP Stress period 255
    -1     0 # Data Set 5: ITMP NP Stress period 256
    -1     0 # Data Set 5: ITMP NP Stress period 257
    -1     0 # Data Set 5: ITMP NP Stress period 258
    -1     0 # Data Set 5: ITMP NP Stress period 259
    -1     0 # Data Set 5: ITMP NP Stress period 260
    -1     0 # Data Set 5: ITMP NP Stress period 261
    -1     0 # Data Set 5: ITMP NP Stress period 262
    -1     0 # Data Set 5: ITMP NP Stress period 263
    -1     0 # Data Set 5: ITMP NP Stress period 264
    -1     0 # Data Set 5: ITMP NP Stress period 265
    -1     0 # Data Set 5: ITMP NP Stress period 266
    -1     0 # Data Set 5: ITMP NP Stress period 267
    -1     0 # Data Set 5: ITMP NP Stress period 268
    -1     0 # Data Set 5: ITMP NP Stress period 269
    -1     0 # Data Set 5: ITMP NP Stress period 270
    -1     0 # Data Set 5: ITMP NP Stress period 271
    -1     0 # Data Set 5: ITMP NP Stress period 272
    -1     0 # Data Set 5: ITMP NP Stress period 273
    -1     0 # Data Set 5: ITMP NP Stress period 274
    -1     0 # Data Set 5: ITMP NP Stress period 275
    -1     0 # Data Set 5: ITMP NP Stress period 276
    -1     0 # Data Set 5: ITMP NP Stress period 277
    -1     0 # Data Set 5: ITMP NP Stress period 278
    -1     0 # Data Set 5: ITMP NP Stress period 279
    -1     0 # Data Set 5: ITMP NP Stress period 280
    -1     0 # Data Set 5: ITMP NP Stress period 281
    -1     0 # Data Set 5: ITMP NP Stress period 282
    -1     0 # Data Set 5: ITMP NP Stress period 283
    -1     0 # Data Set 5: ITMP NP Stress period 284
    -1     0 # Data Set 5: ITMP NP Stress period 285
    -1     0 # Data Set 5: ITMP NP Stress period 286
    -1     0 # Data Set 5: ITMP NP Stress period 287
    -1     0 # Data Set 5: ITMP NP Stress period 288
    -1     0 # Data Set 5: ITMP NP Stress period 289
    -1     0 # Data Set 5: ITMP NP Stress period 290
    -1     0 # Data Set 5: ITMP NP Stress period 291
    -1     0 # Data Set 5: ITMP NP Stress period 292
    -1     0 # Data Set 5: ITMP NP Stress period 293
    -1     0 # Data Set 5: ITMP NP Stress period 294
    -1     0 # Data Set 5: ITMP NP Stress period 295
    -1     0 # Data Set 5: ITMP NP Stress period 296
    -1     0 # Data Set 5: ITMP NP Stress period 297
    -1     0 # Data Set 5: ITMP NP Stress period 298
    -1     0 # Data Set 5: ITMP NP Stress period 299
    -1     0 # Data Set 5: ITMP NP Stress period 300
    -1     0 # Data Set 5: ITMP NP Stress period 301
    -1     0 # Data Set 5: ITMP NP Stress period 302
    -1     0 # Data Set 5: ITMP NP Stress period 303
    -1     0 # Data Set 5: ITMP NP Stress period 304
    -1     0 # Data Set 5: ITMP NP Stress period 305
    -1     0 # Data Set 5: ITMP NP Stress period 306
    -1     0 # Data Set 5: ITMP NP Stress period 307
    -1     0 # Data Set 5: ITMP NP Stress period 308
    -1     0 # Data Set 5: ITMP NP Stress period 309
    -1     0 # Data Set 5: ITMP NP Stress period 310
    -1     0 # Data Set 5: ITMP NP Stress period 311
    -1     0 # Data Set 5: ITMP NP Stress period 312
    -1     0 # Data Set 5: ITMP NP Stress period 313
    -1     0 # Data Set 5: ITMP NP Stress period 314
    -1     0 # Data Set 5: ITMP NP Stress period 315
    -1     0 # Data Set 5: ITMP NP Stress period 316
    -1     0 # Data Set 5: ITMP NP Stress period 317
    -1     0 # Data Set 5: ITMP NP Stress period 318
    -1     0 # Data Set 5: ITMP NP Stress period 319
    -1     0 # Data Set 5: ITMP NP Stress period 320
    -1     0 # Data Set 5: ITMP NP Stress period 321
    -1     0 # Data Set 5: ITMP NP Stress period 322
    -1     0 # Data Set 5: ITMP NP Stress period 323
    -1     0 # Data Set 5: ITMP NP Stress period 324
    -1     0 # Data Set 5: ITMP NP Stress period 325
    -1     0 # Data Set 5: ITMP NP Stress period 326
    -1     0 # Data Set 5: ITMP NP Stress period 327
    -1     0 # Data Set 5: ITMP NP Stress period 328
    -1     0 # Data Set 5: ITMP NP Stress period 329
    -1     0 # Data Set 5: ITMP NP Stress period 330
    -1     0 # Data Set 5: ITMP NP Stress period 331
    -1     0 # Data Set 5: ITMP NP Stress period 332
    -1     0 # Data Set 5: ITMP NP Stress period 333
    -1     0 # Data Set 5: ITMP NP Stress period 334
    -1     0 # Data Set 5: ITMP NP Stress period 335
    -1     0 # Data Set 5: ITMP NP Stress period 336
    -1     0 # Data Set 5: ITMP NP Stress period 337
    -1     0 # Data Set 5: ITMP NP Stress period 338
    -1     0 # Data Set 5: ITMP NP Stress period 339
    -1     0 # Data Set 5: ITMP NP Stress period 340
    -1     0 # Data Set 5: ITMP NP Stress period 341
    -1     0 # Data Set 5: ITMP NP Stress period 342
    -1     0 # Data Set 5: ITMP NP Stress period 343
    -1     0 # Data Set 5: ITMP NP Stress period 344
    -1     0 # Data Set 5: ITMP NP Stress period 345
    -1     0 # Data Set 5: ITMP NP Stress period 346
    -1     0 # Data Set 5: ITMP NP Stress period 347
    -1     0 # Data Set 5: ITMP NP Stress period 348
    -1     0 # Data Set 5: ITMP NP Stress period 349
    -1     0 # Data Set 5: ITMP NP Stress period 350
