# Name File for MT3DMS created on 10/11/2018 by ModelMuse
LIST 16 ..\..\output\output.ImportedP2_nonlinear_MT3DMS\ImportedP2_nonlinear.mls
FTL 10 ..\..\output\output.ImportedP2_nonlinear\ImportedP2_nonlinear.ftl
DATA 17 ..\..\output\output.ImportedP2_nonlinear_MT3DMS\ImportedP2_nonlinear.cnf
BTN 1 ..\..\model\model.ImportedP2_nonlinear_MT3DMS\ImportedP2_nonlinear.btn
DATA(BINARY) 201 ..\..\output\output.ImportedP2_nonlinear_MT3DMS\ImportedP2_nonlinear_Comp1.ucn
DATA(BINARY) 301 ..\..\output\output.ImportedP2_nonlinear_MT3DMS\ImportedP2_nonlinear_Comp1_S.ucn
DATA 601 ..\..\output\output.ImportedP2_nonlinear_MT3DMS\ImportedP2_nonlinear_Comp1._mas
DATA 401 ..\..\output\output.ImportedP2_nonlinear_MT3DMS\ImportedP2_nonlinear_Comp1.mto
ADV 2 ..\..\model\model.ImportedP2_nonlinear_MT3DMS\ImportedP2_nonlinear.adv
DSP 3 ..\..\model\model.ImportedP2_nonlinear_MT3DMS\ImportedP2_nonlinear.dsp
SSM 4 ..\..\model\model.ImportedP2_nonlinear_MT3DMS\ImportedP2_nonlinear.ssm
RCT 8 ..\..\model\model.ImportedP2_nonlinear_MT3DMS\ImportedP2_nonlinear.rct
GCG 9 ..\..\model\model.ImportedP2_nonlinear_MT3DMS\ImportedP2_nonlinear.gcg
