# MT3DMS Benchmark Test Problem #10
# 3-D Flow and Transport
# Basic Package file created on 6/8/2020 by ModelMuse version 4.2.0.17.
# Number of active cells = 9760.
FREE  # OPTIONS
CONSTANT        1 # IBOUND Layer 1
CONSTANT        1 # IBOUND Layer 2
CONSTANT        1 # IBOUND Layer 3
CONSTANT        1 # IBOUND Layer 4
 -9.990000000000E+002  # HNOFLO
INTERNAL 1.0 (FREE)       12 # STRT Layer 1
  7.873990000000E+002   7.882180000000E+002   7.887640000000E+002   7.890370000000E+002   7.891730000000E+002   7.892410000000E+002   7.892760000000E+002   7.892980000000E+002   7.893210000000E+002   7.893440000000E+002 
  7.893670000000E+002   7.893890000000E+002   7.894120000000E+002   7.894350000000E+002   7.894580000000E+002   7.894800000000E+002   7.895030000000E+002   7.895260000000E+002   7.895490000000E+002   7.895710000000E+002 
  7.895940000000E+002   7.896170000000E+002   7.896400000000E+002   7.896620000000E+002   7.896850000000E+002   7.897080000000E+002   7.897310000000E+002   7.897530000000E+002   7.897760000000E+002   7.897990000000E+002 
  7.898210000000E+002   7.898440000000E+002   7.898670000000E+002   7.898900000000E+002   7.899240000000E+002   7.899920000000E+002   7.901290000000E+002   7.904020000000E+002   7.909480000000E+002   7.917670000000E+002 
  7.853190000000E+002   7.861380000000E+002   7.866840000000E+002   7.869570000000E+002   7.870930000000E+002   7.871610000000E+002   7.871950000000E+002   7.872180000000E+002   7.872410000000E+002   7.872640000000E+002 
  7.872860000000E+002   7.873090000000E+002   7.873320000000E+002   7.873550000000E+002   7.873780000000E+002   7.874000000000E+002   7.874230000000E+002   7.874460000000E+002   7.874690000000E+002   7.874910000000E+002 
  7.875140000000E+002   7.875370000000E+002   7.875600000000E+002   7.875820000000E+002   7.876050000000E+002   7.876280000000E+002   7.876510000000E+002   7.876730000000E+002   7.876960000000E+002   7.877190000000E+002 
  7.877420000000E+002   7.877640000000E+002   7.877870000000E+002   7.878100000000E+002   7.878440000000E+002   7.879120000000E+002   7.880490000000E+002   7.883220000000E+002   7.888680000000E+002   7.896870000000E+002 
  7.832390000000E+002   7.840580000000E+002   7.846040000000E+002   7.848770000000E+002   7.850130000000E+002   7.850810000000E+002   7.851150000000E+002   7.851380000000E+002   7.851610000000E+002   7.851840000000E+002 
  7.852060000000E+002   7.852290000000E+002   7.852520000000E+002   7.852750000000E+002   7.852970000000E+002   7.853200000000E+002   7.853430000000E+002   7.853660000000E+002   7.853880000000E+002   7.854110000000E+002 
  7.854340000000E+002   7.854570000000E+002   7.854790000000E+002   7.855020000000E+002   7.855250000000E+002   7.855480000000E+002   7.855700000000E+002   7.855930000000E+002   7.856160000000E+002   7.856390000000E+002 
  7.856610000000E+002   7.856840000000E+002   7.857070000000E+002   7.857300000000E+002   7.857640000000E+002   7.858320000000E+002   7.859690000000E+002   7.862420000000E+002   7.867880000000E+002   7.876070000000E+002 
  7.813670000000E+002   7.821860000000E+002   7.827320000000E+002   7.830050000000E+002   7.831410000000E+002   7.832090000000E+002   7.832440000000E+002   7.832660000000E+002   7.832890000000E+002   7.833120000000E+002 
  7.833340000000E+002   7.833570000000E+002   7.833800000000E+002   7.834030000000E+002   7.834250000000E+002   7.834480000000E+002   7.834710000000E+002   7.834940000000E+002   7.835160000000E+002   7.835390000000E+002 
  7.835620000000E+002   7.835850000000E+002   7.836070000000E+002   7.836300000000E+002   7.836530000000E+002   7.836760000000E+002   7.836980000000E+002   7.837210000000E+002   7.837440000000E+002   7.837670000000E+002 
  7.837890000000E+002   7.838120000000E+002   7.838350000000E+002   7.838580000000E+002   7.838920000000E+002   7.839600000000E+002   7.840970000000E+002   7.843700000000E+002   7.849160000000E+002   7.857350000000E+002 
  7.801190000000E+002   7.809380000000E+002   7.814840000000E+002   7.817570000000E+002   7.818930000000E+002   7.819610000000E+002   7.819950000000E+002   7.820180000000E+002   7.820410000000E+002   7.820640000000E+002 
  7.820860000000E+002   7.821090000000E+002   7.821320000000E+002   7.821550000000E+002   7.821770000000E+002   7.822000000000E+002   7.822230000000E+002   7.822460000000E+002   7.822680000000E+002   7.822910000000E+002 
  7.823140000000E+002   7.823370000000E+002   7.823590000000E+002   7.823820000000E+002   7.824050000000E+002   7.824280000000E+002   7.824510000000E+002   7.824730000000E+002   7.824960000000E+002   7.825190000000E+002 
  7.825420000000E+002   7.825640000000E+002   7.825870000000E+002   7.826100000000E+002   7.826440000000E+002   7.827120000000E+002   7.828490000000E+002   7.831220000000E+002   7.836680000000E+002   7.844870000000E+002 
  7.794950000000E+002   7.803140000000E+002   7.808600000000E+002   7.811330000000E+002   7.812690000000E+002   7.813370000000E+002   7.813720000000E+002   7.813940000000E+002   7.814170000000E+002   7.814400000000E+002 
  7.814630000000E+002   7.814850000000E+002   7.815080000000E+002   7.815310000000E+002   7.815540000000E+002   7.815760000000E+002   7.815990000000E+002   7.816220000000E+002   7.816440000000E+002   7.816670000000E+002 
  7.816900000000E+002   7.817130000000E+002   7.817350000000E+002   7.817580000000E+002   7.817810000000E+002   7.818040000000E+002   7.818260000000E+002   7.818490000000E+002   7.818720000000E+002   7.818950000000E+002 
  7.819170000000E+002   7.819400000000E+002   7.819630000000E+002   7.819860000000E+002   7.820200000000E+002   7.820880000000E+002   7.822250000000E+002   7.824980000000E+002   7.830440000000E+002   7.838630000000E+002 
  7.791830000000E+002   7.800020000000E+002   7.805480000000E+002   7.808210000000E+002   7.809570000000E+002   7.810250000000E+002   7.810600000000E+002   7.810820000000E+002   7.811050000000E+002   7.811280000000E+002 
  7.811510000000E+002   7.811730000000E+002   7.811960000000E+002   7.812190000000E+002   7.812420000000E+002   7.812640000000E+002   7.812870000000E+002   7.813100000000E+002   7.813330000000E+002   7.813550000000E+002 
  7.813780000000E+002   7.814010000000E+002   7.814240000000E+002   7.814460000000E+002   7.814690000000E+002   7.814920000000E+002   7.815150000000E+002   7.815370000000E+002   7.815600000000E+002   7.815830000000E+002 
  7.816060000000E+002   7.816280000000E+002   7.816510000000E+002   7.816740000000E+002   7.817080000000E+002   7.817760000000E+002   7.819130000000E+002   7.821860000000E+002   7.827320000000E+002   7.835510000000E+002 
  7.790270000000E+002   7.798460000000E+002   7.803920000000E+002   7.806650000000E+002   7.808010000000E+002   7.808690000000E+002   7.809040000000E+002   7.809260000000E+002   7.809490000000E+002   7.809720000000E+002 
  7.809950000000E+002   7.810170000000E+002   7.810400000000E+002   7.810630000000E+002   7.810860000000E+002   7.811080000000E+002   7.811310000000E+002   7.811540000000E+002   7.811770000000E+002   7.811990000000E+002 
  7.812220000000E+002   7.812450000000E+002   7.812680000000E+002   7.812900000000E+002   7.813130000000E+002   7.813360000000E+002   7.813590000000E+002   7.813810000000E+002   7.814040000000E+002   7.814270000000E+002 
  7.814500000000E+002   7.814720000000E+002   7.814950000000E+002   7.815180000000E+002   7.815520000000E+002   7.816200000000E+002   7.817570000000E+002   7.820300000000E+002   7.825760000000E+002   7.833950000000E+002 
  7.789490000000E+002   7.797680000000E+002   7.803140000000E+002   7.805870000000E+002   7.807230000000E+002   7.807910000000E+002   7.808260000000E+002   7.808480000000E+002   7.808710000000E+002   7.808940000000E+002 
  7.809170000000E+002   7.809390000000E+002   7.809620000000E+002   7.809850000000E+002   7.810080000000E+002   7.810300000000E+002   7.810530000000E+002   7.810760000000E+002   7.810990000000E+002   7.811210000000E+002 
  7.811440000000E+002   7.811670000000E+002   7.811900000000E+002   7.812120000000E+002   7.812350000000E+002   7.812580000000E+002   7.812810000000E+002   7.813030000000E+002   7.813260000000E+002   7.813490000000E+002 
  7.813720000000E+002   7.813940000000E+002   7.814170000000E+002   7.814400000000E+002   7.814740000000E+002   7.815420000000E+002   7.816790000000E+002   7.819520000000E+002   7.824980000000E+002   7.833170000000E+002 
  7.788970000000E+002   7.797160000000E+002   7.802620000000E+002   7.805350000000E+002   7.806710000000E+002   7.807390000000E+002   7.807730000000E+002   7.807960000000E+002   7.808190000000E+002   7.808420000000E+002 
  7.808650000000E+002   7.808870000000E+002   7.809100000000E+002   7.809330000000E+002   7.809560000000E+002   7.809780000000E+002   7.810010000000E+002   7.810240000000E+002   7.810470000000E+002   7.810690000000E+002 
  7.810920000000E+002   7.811150000000E+002   7.811380000000E+002   7.811600000000E+002   7.811830000000E+002   7.812060000000E+002   7.812290000000E+002   7.812510000000E+002   7.812740000000E+002   7.812970000000E+002 
  7.813200000000E+002   7.813420000000E+002   7.813650000000E+002   7.813880000000E+002   7.814220000000E+002   7.814900000000E+002   7.816270000000E+002   7.819000000000E+002   7.824460000000E+002   7.832650000000E+002 
  7.788450000000E+002   7.796640000000E+002   7.802100000000E+002   7.804830000000E+002   7.806190000000E+002   7.806870000000E+002   7.807210000000E+002   7.807440000000E+002   7.807670000000E+002   7.807900000000E+002 
  7.808130000000E+002   7.808350000000E+002   7.808580000000E+002   7.808810000000E+002   7.809040000000E+002   7.809260000000E+002   7.809490000000E+002   7.809720000000E+002   7.809950000000E+002   7.810170000000E+002 
  7.810400000000E+002   7.810630000000E+002   7.810860000000E+002   7.811080000000E+002   7.811310000000E+002   7.811540000000E+002   7.811770000000E+002   7.811990000000E+002   7.812220000000E+002   7.812450000000E+002 
  7.812680000000E+002   7.812900000000E+002   7.813130000000E+002   7.813360000000E+002   7.813700000000E+002   7.814380000000E+002   7.815750000000E+002   7.818480000000E+002   7.823940000000E+002   7.832130000000E+002 
  7.787930000000E+002   7.796120000000E+002   7.801580000000E+002   7.804310000000E+002   7.805670000000E+002   7.806350000000E+002   7.806690000000E+002   7.806920000000E+002   7.807150000000E+002   7.807380000000E+002 
  7.807600000000E+002   7.807830000000E+002   7.808060000000E+002   7.808290000000E+002   7.808520000000E+002   7.808740000000E+002   7.808970000000E+002   7.809200000000E+002   7.809430000000E+002   7.809650000000E+002 
  7.809880000000E+002   7.810110000000E+002   7.810340000000E+002   7.810560000000E+002   7.810790000000E+002   7.811020000000E+002   7.811250000000E+002   7.811470000000E+002   7.811700000000E+002   7.811930000000E+002 
  7.812160000000E+002   7.812380000000E+002   7.812610000000E+002   7.812840000000E+002   7.813180000000E+002   7.813860000000E+002   7.815230000000E+002   7.817960000000E+002   7.823420000000E+002   7.831610000000E+002 
  7.787410000000E+002   7.795600000000E+002   7.801060000000E+002   7.803790000000E+002   7.805150000000E+002   7.805830000000E+002   7.806170000000E+002   7.806400000000E+002   7.806630000000E+002   7.806860000000E+002 
  7.807080000000E+002   7.807310000000E+002   7.807540000000E+002   7.807770000000E+002   7.807990000000E+002   7.808220000000E+002   7.808450000000E+002   7.808680000000E+002   7.808910000000E+002   7.809130000000E+002 
  7.809360000000E+002   7.809590000000E+002   7.809820000000E+002   7.810040000000E+002   7.810270000000E+002   7.810500000000E+002   7.810730000000E+002   7.810950000000E+002   7.811180000000E+002   7.811410000000E+002 
  7.811640000000E+002   7.811860000000E+002   7.812090000000E+002   7.812320000000E+002   7.812660000000E+002   7.813340000000E+002   7.814710000000E+002   7.817440000000E+002   7.822900000000E+002   7.831090000000E+002 
  7.786890000000E+002   7.795080000000E+002   7.800540000000E+002   7.803270000000E+002   7.804630000000E+002   7.805310000000E+002   7.805650000000E+002   7.805880000000E+002   7.806110000000E+002   7.806340000000E+002 
  7.806560000000E+002   7.806790000000E+002   7.807020000000E+002   7.807250000000E+002   7.807470000000E+002   7.807700000000E+002   7.807930000000E+002   7.808160000000E+002   7.808390000000E+002   7.808610000000E+002 
  7.808840000000E+002   7.809070000000E+002   7.809300000000E+002   7.809520000000E+002   7.809750000000E+002   7.809980000000E+002   7.810210000000E+002   7.810430000000E+002   7.810660000000E+002   7.810890000000E+002 
  7.811120000000E+002   7.811340000000E+002   7.811570000000E+002   7.811800000000E+002   7.812140000000E+002   7.812820000000E+002   7.814190000000E+002   7.816920000000E+002   7.822380000000E+002   7.830570000000E+002 
  7.786370000000E+002   7.794560000000E+002   7.800020000000E+002   7.802750000000E+002   7.804110000000E+002   7.804790000000E+002   7.805130000000E+002   7.805360000000E+002   7.805590000000E+002   7.805820000000E+002 
  7.806040000000E+002   7.806270000000E+002   7.806500000000E+002   7.806730000000E+002   7.806950000000E+002   7.807180000000E+002   7.807410000000E+002   7.807640000000E+002   7.807860000000E+002   7.808090000000E+002 
  7.808320000000E+002   7.808550000000E+002   7.808780000000E+002   7.809000000000E+002   7.809230000000E+002   7.809460000000E+002   7.809690000000E+002   7.809910000000E+002   7.810140000000E+002   7.810370000000E+002 
  7.810600000000E+002   7.810820000000E+002   7.811050000000E+002   7.811280000000E+002   7.811620000000E+002   7.812300000000E+002   7.813670000000E+002   7.816400000000E+002   7.821860000000E+002   7.830050000000E+002 
  7.785850000000E+002   7.794040000000E+002   7.799500000000E+002   7.802230000000E+002   7.803590000000E+002   7.804270000000E+002   7.804610000000E+002   7.804840000000E+002   7.805070000000E+002   7.805300000000E+002 
  7.805520000000E+002   7.805750000000E+002   7.805980000000E+002   7.806210000000E+002   7.806430000000E+002   7.806660000000E+002   7.806890000000E+002   7.807120000000E+002   7.807340000000E+002   7.807570000000E+002 
  7.807800000000E+002   7.808030000000E+002   7.808260000000E+002   7.808480000000E+002   7.808710000000E+002   7.808940000000E+002   7.809170000000E+002   7.809390000000E+002   7.809620000000E+002   7.809850000000E+002 
  7.810080000000E+002   7.810300000000E+002   7.810530000000E+002   7.810760000000E+002   7.811100000000E+002   7.811780000000E+002   7.813150000000E+002   7.815880000000E+002   7.821340000000E+002   7.829530000000E+002 
  7.785330000000E+002   7.793520000000E+002   7.798980000000E+002   7.801710000000E+002   7.803070000000E+002   7.803750000000E+002   7.804090000000E+002   7.804320000000E+002   7.804550000000E+002   7.804780000000E+002 
  7.805000000000E+002   7.805230000000E+002   7.805460000000E+002   7.805690000000E+002   7.805910000000E+002   7.806140000000E+002   7.806370000000E+002   7.806600000000E+002   7.806820000000E+002   7.807050000000E+002 
  7.807280000000E+002   7.807510000000E+002   7.807730000000E+002   7.807960000000E+002   7.808190000000E+002   7.808420000000E+002   7.808650000000E+002   7.808870000000E+002   7.809100000000E+002   7.809330000000E+002 
  7.809560000000E+002   7.809780000000E+002   7.810010000000E+002   7.810240000000E+002   7.810580000000E+002   7.811260000000E+002   7.812630000000E+002   7.815360000000E+002   7.820820000000E+002   7.829010000000E+002 
  7.784810000000E+002   7.793000000000E+002   7.798460000000E+002   7.801190000000E+002   7.802550000000E+002   7.803230000000E+002   7.803570000000E+002   7.803800000000E+002   7.804030000000E+002   7.804260000000E+002 
  7.804480000000E+002   7.804710000000E+002   7.804940000000E+002   7.805170000000E+002   7.805390000000E+002   7.805620000000E+002   7.805850000000E+002   7.806080000000E+002   7.806300000000E+002   7.806530000000E+002 
  7.806760000000E+002   7.806990000000E+002   7.807210000000E+002   7.807440000000E+002   7.807670000000E+002   7.807900000000E+002   7.808130000000E+002   7.808350000000E+002   7.808580000000E+002   7.808810000000E+002 
  7.809040000000E+002   7.809260000000E+002   7.809490000000E+002   7.809720000000E+002   7.810060000000E+002   7.810740000000E+002   7.812110000000E+002   7.814840000000E+002   7.820300000000E+002   7.828490000000E+002 
  7.784290000000E+002   7.792480000000E+002   7.797940000000E+002   7.800670000000E+002   7.802030000000E+002   7.802710000000E+002   7.803050000000E+002   7.803280000000E+002   7.803510000000E+002   7.803740000000E+002 
  7.803960000000E+002   7.804190000000E+002   7.804420000000E+002   7.804650000000E+002   7.804870000000E+002   7.805100000000E+002   7.805330000000E+002   7.805560000000E+002   7.805780000000E+002   7.806010000000E+002 
  7.806240000000E+002   7.806470000000E+002   7.806690000000E+002   7.806920000000E+002   7.807150000000E+002   7.807380000000E+002   7.807600000000E+002   7.807830000000E+002   7.808060000000E+002   7.808290000000E+002 
  7.808520000000E+002   7.808740000000E+002   7.808970000000E+002   7.809200000000E+002   7.809540000000E+002   7.810220000000E+002   7.811590000000E+002   7.814320000000E+002   7.819780000000E+002   7.827970000000E+002 
  7.783770000000E+002   7.791960000000E+002   7.797420000000E+002   7.800150000000E+002   7.801510000000E+002   7.802190000000E+002   7.802530000000E+002   7.802760000000E+002   7.802990000000E+002   7.803220000000E+002 
  7.803440000000E+002   7.803670000000E+002   7.803900000000E+002   7.804130000000E+002   7.804350000000E+002   7.804580000000E+002   7.804810000000E+002   7.805040000000E+002   7.805260000000E+002   7.805490000000E+002 
  7.805720000000E+002   7.805950000000E+002   7.806170000000E+002   7.806400000000E+002   7.806630000000E+002   7.806860000000E+002   7.807080000000E+002   7.807310000000E+002   7.807540000000E+002   7.807770000000E+002 
  7.807990000000E+002   7.808220000000E+002   7.808450000000E+002   7.808680000000E+002   7.809020000000E+002   7.809700000000E+002   7.811070000000E+002   7.813800000000E+002   7.819260000000E+002   7.827450000000E+002 
  7.783250000000E+002   7.791440000000E+002   7.796900000000E+002   7.799630000000E+002   7.800990000000E+002   7.801670000000E+002   7.802010000000E+002   7.802240000000E+002   7.802470000000E+002   7.802700000000E+002 
  7.802920000000E+002   7.803150000000E+002   7.803380000000E+002   7.803610000000E+002   7.803830000000E+002   7.804060000000E+002   7.804290000000E+002   7.804520000000E+002   7.804740000000E+002   7.804970000000E+002 
  7.805200000000E+002   7.805430000000E+002   7.805650000000E+002   7.805880000000E+002   7.806110000000E+002   7.806340000000E+002   7.806560000000E+002   7.806790000000E+002   7.807020000000E+002   7.807250000000E+002 
  7.807470000000E+002   7.807700000000E+002   7.807930000000E+002   7.808160000000E+002   7.808500000000E+002   7.809180000000E+002   7.810550000000E+002   7.813280000000E+002   7.818740000000E+002   7.826930000000E+002 
  7.782730000000E+002   7.790920000000E+002   7.796380000000E+002   7.799110000000E+002   7.800470000000E+002   7.801150000000E+002   7.801490000000E+002   7.801720000000E+002   7.801950000000E+002   7.802180000000E+002 
  7.802400000000E+002   7.802630000000E+002   7.802860000000E+002   7.803090000000E+002   7.803310000000E+002   7.803540000000E+002   7.803770000000E+002   7.804000000000E+002   7.804220000000E+002   7.804450000000E+002 
  7.804680000000E+002   7.804910000000E+002   7.805130000000E+002   7.805360000000E+002   7.805590000000E+002   7.805820000000E+002   7.806040000000E+002   7.806270000000E+002   7.806500000000E+002   7.806730000000E+002 
  7.806950000000E+002   7.807180000000E+002   7.807410000000E+002   7.807640000000E+002   7.807980000000E+002   7.808660000000E+002   7.810030000000E+002   7.812760000000E+002   7.818220000000E+002   7.826410000000E+002 
  7.782210000000E+002   7.790400000000E+002   7.795860000000E+002   7.798590000000E+002   7.799950000000E+002   7.800630000000E+002   7.800970000000E+002   7.801200000000E+002   7.801430000000E+002   7.801660000000E+002 
  7.801880000000E+002   7.802110000000E+002   7.802340000000E+002   7.802570000000E+002   7.802790000000E+002   7.803020000000E+002   7.803250000000E+002   7.803480000000E+002   7.803700000000E+002   7.803930000000E+002 
  7.804160000000E+002   7.804390000000E+002   7.804610000000E+002   7.804840000000E+002   7.805070000000E+002   7.805300000000E+002   7.805520000000E+002   7.805750000000E+002   7.805980000000E+002   7.806210000000E+002 
  7.806430000000E+002   7.806660000000E+002   7.806890000000E+002   7.807120000000E+002   7.807460000000E+002   7.808140000000E+002   7.809510000000E+002   7.812240000000E+002   7.817700000000E+002   7.825890000000E+002 
  7.781690000000E+002   7.789880000000E+002   7.795340000000E+002   7.798070000000E+002   7.799430000000E+002   7.800110000000E+002   7.800450000000E+002   7.800680000000E+002   7.800910000000E+002   7.801140000000E+002 
  7.801360000000E+002   7.801590000000E+002   7.801820000000E+002   7.802050000000E+002   7.802270000000E+002   7.802500000000E+002   7.802730000000E+002   7.802960000000E+002   7.803180000000E+002   7.803410000000E+002 
  7.803640000000E+002   7.803870000000E+002   7.804090000000E+002   7.804320000000E+002   7.804550000000E+002   7.804780000000E+002   7.805000000000E+002   7.805230000000E+002   7.805460000000E+002   7.805690000000E+002 
  7.805910000000E+002   7.806140000000E+002   7.806370000000E+002   7.806600000000E+002   7.806940000000E+002   7.807620000000E+002   7.808990000000E+002   7.811720000000E+002   7.817180000000E+002   7.825370000000E+002 
  7.781170000000E+002   7.789360000000E+002   7.794820000000E+002   7.797550000000E+002   7.798910000000E+002   7.799590000000E+002   7.799940000000E+002   7.800160000000E+002   7.800390000000E+002   7.800620000000E+002 
  7.800840000000E+002   7.801070000000E+002   7.801300000000E+002   7.801530000000E+002   7.801750000000E+002   7.801980000000E+002   7.802210000000E+002   7.802440000000E+002   7.802660000000E+002   7.802890000000E+002 
  7.803120000000E+002   7.803350000000E+002   7.803570000000E+002   7.803800000000E+002   7.804030000000E+002   7.804260000000E+002   7.804480000000E+002   7.804710000000E+002   7.804940000000E+002   7.805170000000E+002 
  7.805390000000E+002   7.805620000000E+002   7.805850000000E+002   7.806080000000E+002   7.806420000000E+002   7.807100000000E+002   7.808470000000E+002   7.811200000000E+002   7.816660000000E+002   7.824850000000E+002 
  7.780650000000E+002   7.788840000000E+002   7.794300000000E+002   7.797030000000E+002   7.798390000000E+002   7.799070000000E+002   7.799420000000E+002   7.799640000000E+002   7.799870000000E+002   7.800100000000E+002 
  7.800320000000E+002   7.800550000000E+002   7.800780000000E+002   7.801010000000E+002   7.801230000000E+002   7.801460000000E+002   7.801690000000E+002   7.801920000000E+002   7.802140000000E+002   7.802370000000E+002 
  7.802600000000E+002   7.802830000000E+002   7.803050000000E+002   7.803280000000E+002   7.803510000000E+002   7.803740000000E+002   7.803960000000E+002   7.804190000000E+002   7.804420000000E+002   7.804650000000E+002 
  7.804870000000E+002   7.805100000000E+002   7.805330000000E+002   7.805560000000E+002   7.805900000000E+002   7.806580000000E+002   7.807950000000E+002   7.810680000000E+002   7.816140000000E+002   7.824330000000E+002 
  7.780130000000E+002   7.788320000000E+002   7.793780000000E+002   7.796510000000E+002   7.797870000000E+002   7.798550000000E+002   7.798900000000E+002   7.799120000000E+002   7.799350000000E+002   7.799580000000E+002 
  7.799810000000E+002   7.800030000000E+002   7.800260000000E+002   7.800490000000E+002   7.800710000000E+002   7.800940000000E+002   7.801170000000E+002   7.801400000000E+002   7.801620000000E+002   7.801850000000E+002 
  7.802080000000E+002   7.802310000000E+002   7.802530000000E+002   7.802760000000E+002   7.802990000000E+002   7.803220000000E+002   7.803440000000E+002   7.803670000000E+002   7.803900000000E+002   7.804130000000E+002 
  7.804350000000E+002   7.804580000000E+002   7.804810000000E+002   7.805040000000E+002   7.805380000000E+002   7.806060000000E+002   7.807430000000E+002   7.810160000000E+002   7.815620000000E+002   7.823810000000E+002 
  7.779610000000E+002   7.787800000000E+002   7.793260000000E+002   7.795990000000E+002   7.797350000000E+002   7.798030000000E+002   7.798380000000E+002   7.798600000000E+002   7.798830000000E+002   7.799060000000E+002 
  7.799290000000E+002   7.799510000000E+002   7.799740000000E+002   7.799970000000E+002   7.800190000000E+002   7.800420000000E+002   7.800650000000E+002   7.800880000000E+002   7.801100000000E+002   7.801330000000E+002 
  7.801560000000E+002   7.801790000000E+002   7.802010000000E+002   7.802240000000E+002   7.802470000000E+002   7.802700000000E+002   7.802920000000E+002   7.803150000000E+002   7.803380000000E+002   7.803610000000E+002 
  7.803830000000E+002   7.804060000000E+002   7.804290000000E+002   7.804520000000E+002   7.804860000000E+002   7.805540000000E+002   7.806910000000E+002   7.809640000000E+002   7.815100000000E+002   7.823290000000E+002 
  7.779090000000E+002   7.787280000000E+002   7.792740000000E+002   7.795470000000E+002   7.796830000000E+002   7.797510000000E+002   7.797860000000E+002   7.798080000000E+002   7.798310000000E+002   7.798540000000E+002 
  7.798770000000E+002   7.798990000000E+002   7.799220000000E+002   7.799450000000E+002   7.799680000000E+002   7.799900000000E+002   7.800130000000E+002   7.800360000000E+002   7.800580000000E+002   7.800810000000E+002 
  7.801040000000E+002   7.801270000000E+002   7.801490000000E+002   7.801720000000E+002   7.801950000000E+002   7.802180000000E+002   7.802400000000E+002   7.802630000000E+002   7.802860000000E+002   7.803090000000E+002 
  7.803310000000E+002   7.803540000000E+002   7.803770000000E+002   7.804000000000E+002   7.804340000000E+002   7.805020000000E+002   7.806390000000E+002   7.809120000000E+002   7.814580000000E+002   7.822770000000E+002 
  7.778570000000E+002   7.786760000000E+002   7.792220000000E+002   7.794950000000E+002   7.796310000000E+002   7.796990000000E+002   7.797340000000E+002   7.797560000000E+002   7.797790000000E+002   7.798020000000E+002 
  7.798250000000E+002   7.798470000000E+002   7.798700000000E+002   7.798930000000E+002   7.799160000000E+002   7.799380000000E+002   7.799610000000E+002   7.799840000000E+002   7.800060000000E+002   7.800290000000E+002 
  7.800520000000E+002   7.800750000000E+002   7.800970000000E+002   7.801200000000E+002   7.801430000000E+002   7.801660000000E+002   7.801880000000E+002   7.802110000000E+002   7.802340000000E+002   7.802570000000E+002 
  7.802790000000E+002   7.803020000000E+002   7.803250000000E+002   7.803480000000E+002   7.803820000000E+002   7.804500000000E+002   7.805870000000E+002   7.808600000000E+002   7.814060000000E+002   7.822250000000E+002 
  7.778050000000E+002   7.786240000000E+002   7.791700000000E+002   7.794430000000E+002   7.795790000000E+002   7.796470000000E+002   7.796820000000E+002   7.797040000000E+002   7.797270000000E+002   7.797500000000E+002 
  7.797730000000E+002   7.797950000000E+002   7.798180000000E+002   7.798410000000E+002   7.798640000000E+002   7.798860000000E+002   7.799090000000E+002   7.799320000000E+002   7.799550000000E+002   7.799770000000E+002 
  7.800000000000E+002   7.800230000000E+002   7.800450000000E+002   7.800680000000E+002   7.800910000000E+002   7.801140000000E+002   7.801360000000E+002   7.801590000000E+002   7.801820000000E+002   7.802050000000E+002 
  7.802270000000E+002   7.802500000000E+002   7.802730000000E+002   7.802960000000E+002   7.803300000000E+002   7.803980000000E+002   7.805350000000E+002   7.808080000000E+002   7.813540000000E+002   7.821730000000E+002 
  7.777530000000E+002   7.785720000000E+002   7.791180000000E+002   7.793910000000E+002   7.795270000000E+002   7.795950000000E+002   7.796300000000E+002   7.796520000000E+002   7.796750000000E+002   7.796980000000E+002 
  7.797210000000E+002   7.797430000000E+002   7.797660000000E+002   7.797890000000E+002   7.798120000000E+002   7.798340000000E+002   7.798570000000E+002   7.798800000000E+002   7.799030000000E+002   7.799250000000E+002 
  7.799480000000E+002   7.799710000000E+002   7.799940000000E+002   7.800160000000E+002   7.800390000000E+002   7.800620000000E+002   7.800840000000E+002   7.801070000000E+002   7.801300000000E+002   7.801530000000E+002 
  7.801750000000E+002   7.801980000000E+002   7.802210000000E+002   7.802440000000E+002   7.802780000000E+002   7.803460000000E+002   7.804830000000E+002   7.807560000000E+002   7.813020000000E+002   7.821210000000E+002 
  7.777010000000E+002   7.785200000000E+002   7.790660000000E+002   7.793390000000E+002   7.794750000000E+002   7.795430000000E+002   7.795780000000E+002   7.796000000000E+002   7.796230000000E+002   7.796460000000E+002 
  7.796690000000E+002   7.796910000000E+002   7.797140000000E+002   7.797370000000E+002   7.797600000000E+002   7.797820000000E+002   7.798050000000E+002   7.798280000000E+002   7.798510000000E+002   7.798730000000E+002 
  7.798960000000E+002   7.799190000000E+002   7.799420000000E+002   7.799640000000E+002   7.799870000000E+002   7.800100000000E+002   7.800320000000E+002   7.800550000000E+002   7.800780000000E+002   7.801010000000E+002 
  7.801230000000E+002   7.801460000000E+002   7.801690000000E+002   7.801920000000E+002   7.802260000000E+002   7.802940000000E+002   7.804310000000E+002   7.807040000000E+002   7.812500000000E+002   7.820690000000E+002 
  7.776490000000E+002   7.784680000000E+002   7.790140000000E+002   7.792870000000E+002   7.794230000000E+002   7.794910000000E+002   7.795260000000E+002   7.795480000000E+002   7.795710000000E+002   7.795940000000E+002 