# Name File for MODFLOW created on 5/17/2019 by ModelMuse Version 3.10.0.60
LIST             11 ..\..\output\output.ImportMt3dSteadyState\ImportMt3dSteadyState.lst REPLACE
DATA(BINARY)      9 ..\..\output\output.ImportMt3dSteadyState\ImportMt3dSteadyState.cbc REPLACE
DIS              12 ..\..\model\model.ImportMt3dSteadyState\ImportMt3dSteadyState.dis OLD
BAS6             13 ..\..\model\model.ImportMt3dSteadyState\ImportMt3dSteadyState.bas OLD
OC               39 ..\..\model\model.ImportMt3dSteadyState\ImportMt3dSteadyState.oc OLD
DATA             37 ..\..\output\output.ImportMt3dSteadyState\ImportMt3dSteadyState.fhd REPLACE
DATA             38 ..\..\output\output.ImportMt3dSteadyState\ImportMt3dSteadyState.fdn REPLACE
SIP              35 ..\..\model\model.ImportMt3dSteadyState\ImportMt3dSteadyState.sip OLD
BCF6             64 ..\..\model\model.ImportMt3dSteadyState\ImportMt3dSteadyState.bcf OLD
LMT6            135 ..\..\model\model.ImportMt3dSteadyState\ImportMt3dSteadyState.lmt OLD
CHD              17 ..\..\model\model.ImportMt3dSteadyState\ImportMt3dSteadyState.chd OLD
WEL              20 ..\..\model\model.ImportMt3dSteadyState\ImportMt3dSteadyState.wel OLD
