# Name File for MODFLOW created on 2/1/2017 by ModelMuse Version 3.8.1.27
LIST             11 ..\..\output\output.ImportedSub4\ImportedSub4.lst REPLACE
DIS              12 ..\..\model\model.ImportedSub4\ImportedSub4.dis OLD
BAS6             13 ..\..\model\model.ImportedSub4\ImportedSub4.bas OLD
OC               39 ..\..\model\model.ImportedSub4\ImportedSub4.oc OLD
DATA             37 ..\..\output\output.ImportedSub4\ImportedSub4.fhd REPLACE
DATA             38 ..\..\output\output.ImportedSub4\ImportedSub4.fdn REPLACE
SIP              35 ..\..\model\model.ImportedSub4\ImportedSub4.sip OLD
BCF6             64 ..\..\model\model.ImportedSub4\ImportedSub4.bcf OLD
CHD              17 ..\..\model\model.ImportedSub4\ImportedSub4.chd OLD
WEL              20 ..\..\model\model.ImportedSub4\ImportedSub4.wel OLD
SUB              65 ..\..\model\model.ImportedSub4\ImportedSub4.sub OLD
DATA(BINARY)    110 ..\..\output\output.ImportedSub4\ImportedSub4.Sub_Out REPLACE
