# Discretization File created on 12/12/2015 by ModelMuse version 3.6.3.5.
# MODFLOW2005 Basic Package
# Upper left corner: (0, 0)
# Lower left corner: (0, -1828.8)
# Upper right corner: (1828.8, 0)
# Lower right corner: (1828.8, -1828.8)
# Grid angle (in degrees counterclockwise): 0
     2     6     6   350     4     2 # NLAY, NROW, NCOL, NPER, ITMUNI, LENUNI
     0     0 # LAYCB
INTERNAL 1.0 (FREE)       12 # DELR
  3.048000000000E+002   3.048000000000E+002   3.048000000000E+002   3.048000000000E+002   3.048000000000E+002   3.048000000000E+002 
INTERNAL 1.0 (FREE)       12 # DELC
  3.048000000000E+002   3.048000000000E+002   3.048000000000E+002   3.048000000000E+002   3.048000000000E+002   3.048000000000E+002 
INTERNAL 1.0 (FREE)       12 # TOP
  1.530000000000E+000   1.724000000000E+000   1.824000000000E+000   1.524000000000E+000   1.424000000000E+000   1.224000000000E+000 
  1.530000000000E+000   1.524000000000E+000   1.624000000000E+000   1.324000000000E+000   1.224000000000E+000   1.224000000000E+000 
  1.530000000000E+000   1.624000000000E+000   1.424000000000E+000   1.224000000000E+000   3.048000000000E-001   1.124000000000E+000 
  1.530000000000E+000   1.524000000000E+000   1.424000000000E+000   1.324000000000E+000   3.048000000000E-001   1.024000000000E+000 
  1.530000000000E+000   1.624000000000E+000   1.524000000000E+000   1.424000000000E+000   9.240000000000E-001   8.240000000000E-001 
  1.530000000000E+000   1.724000000000E+000   1.624000000000E+000   1.624000000000E+000   1.124000000000E+000   1.424000000000E+000 
CONSTANT     2.500000000000E-001  # BOTM, Layer 1
CONSTANT    -2.000000000000E+001  # BOTM, Layer 2
  1.000000000000E+000      6  1.000000000000E+000  TR # PERLEN NSTP TSMULT Ss/tr (Stress period 1)
  1.000000000000E+000      6  1.000000000000E+000  TR # PERLEN NSTP TSMULT Ss/tr (Stress period 2)
  1.000000000000E+000      6  1.000000000000E+000  TR # PERLEN NSTP TSMULT Ss/tr (Stress period 3)
  1.000000000000E+000      6  1.000000000000E+000  TR # PERLEN NSTP TSMULT Ss/tr (Stress period 4)
  1.000000000000E+000      6  1.000000000000E+000  TR # PERLEN NSTP TSMULT Ss/tr (Stress period 5)
  1.000000000000E+000      6  1.000000000000E+000  TR # PERLEN NSTP TSMULT Ss/tr (Stress period 6)
  1.000000000000E+000      6  1.000000000000E+000  TR # PERLEN NSTP TSMULT Ss/tr (Stress period 7)
  1.000000000000E+000      6  1.000000000000E+000  TR # PERLEN NSTP TSMULT Ss/tr (Stress period 8)
  1.000000000000E+000      6  1.000000000000E+000  TR # PERLEN NSTP TSMULT Ss/tr (Stress period 9)
  1.000000000000E+000      6  1.000000000000E+000  TR # PERLEN NSTP TSMULT Ss/tr (Stress period 10)
  1.000000000000E+000      6  1.000000000000E+000  TR # PERLEN NSTP TSMULT Ss/tr (Stress period 11)
  1.000000000000E+000      6  1.000000000000E+000  TR # PERLEN NSTP TSMULT Ss/tr (Stress period 12)
  1.000000000000E+000      6  1.000000000000E+000  TR # PERLEN NSTP TSMULT Ss/tr (Stress period 13)
  1.000000000000E+000      6  1.000000000000E+000  TR # PERLEN NSTP TSMULT Ss/tr (Stress period 14)
  1.000000000000E+000      6  1.000000000000E+000  TR # PERLEN NSTP TSMULT Ss/tr (Stress period 15)
  1.000000000000E+000      6  1.000000000000E+000  TR # PERLEN NSTP TSMULT Ss/tr (Stress period 16)
  1.000000000000E+000      6  1.000000000000E+000  TR # PERLEN NSTP TSMULT Ss/tr (Stress period 17)
  1.000000000000E+000      6  1.000000000000E+000  TR # PERLEN NSTP TSMULT Ss/tr (Stress period 18)
  1.000000000000E+000      6  1.000000000000E+000  TR # PERLEN NSTP TSMULT Ss/tr (Stress period 19)
  1.000000000000E+000      6  1.000000000000E+000  TR # PERLEN NSTP TSMULT Ss/tr (Stress period 20)
  1.000000000000E+000      6  1.000000000000E+000  TR # PERLEN NSTP TSMULT Ss/tr (Stress period 21)
  1.000000000000E+000      6  1.000000000000E+000  TR # PERLEN NSTP TSMULT Ss/tr (Stress period 22)
  1.000000000000E+000      6  1.000000000000E+000  TR # PERLEN NSTP TSMULT Ss/tr (Stress period 23)
  1.000000000000E+000      6  1.000000000000E+000  TR # PERLEN NSTP TSMULT Ss/tr (Stress period 24)
  1.000000000000E+000      6  1.000000000000E+000  TR # PERLEN NSTP TSMULT Ss/tr (Stress period 25)
  1.000000000000E+000      6  1.000000000000E+000  TR # PERLEN NSTP TSMULT Ss/tr (Stress period 26)
  1.000000000000E+000      6  1.000000000000E+000  TR # PERLEN NSTP TSMULT Ss/tr (Stress period 27)
  1.000000000000E+000      6  1.000000000000E+000  TR # PERLEN NSTP TSMULT Ss/tr (Stress period 28)
  1.000000000000E+000      6  1.000000000000E+000  TR # PERLEN NSTP TSMULT Ss/tr (Stress period 29)
  1.000000000000E+000      6  1.000000000000E+000  TR # PERLEN NSTP TSMULT Ss/tr (Stress period 30)
  1.000000000000E+000      6  1.000000000000E+000  TR # PERLEN NSTP TSMULT Ss/tr (Stress period 31)
  1.000000000000E+000      6  1.000000000000E+000  TR # PERLEN NSTP TSMULT Ss/tr (Stress period 32)
  1.000000000000E+000      6  1.000000000000E+000  TR # PERLEN NSTP TSMULT Ss/tr (Stress period 33)
  1.000000000000E+000      6  1.000000000000E+000  TR # PERLEN NSTP TSMULT Ss/tr (Stress period 34)
  1.000000000000E+000      6  1.000000000000E+000  TR # PERLEN NSTP TSMULT Ss/tr (Stress period 35)
  1.000000000000E+000      6  1.000000000000E+000  TR # PERLEN NSTP TSMULT Ss/tr (Stress period 36)
  1.000000000000E+000      6  1.000000000000E+000  TR # PERLEN NSTP TSMULT Ss/tr (Stress period 37)
  1.000000000000E+000      6  1.000000000000E+000  TR # PERLEN NSTP TSMULT Ss/tr (Stress period 38)
  1.000000000000E+000      6  1.000000000000E+000  TR # PERLEN NSTP TSMULT Ss/tr (Stress period 39)
  1.000000000000E+000      6  1.000000000000E+000  TR # PERLEN NSTP TSMULT Ss/tr (Stress period 40)
  1.000000000000E+000      6  1.000000000000E+000  TR # PERLEN NSTP TSMULT Ss/tr (Stress period 41)
  1.000000000000E+000      6  1.000000000000E+000  TR # PERLEN NSTP TSMULT Ss/tr (Stress period 42)
  1.000000000000E+000      6  1.000000000000E+000  TR # PERLEN NSTP TSMULT Ss/tr (Stress period 43)
  1.000000000000E+000      6  1.000000000000E+000  TR # PERLEN NSTP TSMULT Ss/tr (Stress period 44)
  1.000000000000E+000      6  1.000000000000E+000  TR # PERLEN NSTP TSMULT Ss/tr (Stress period 45)
  1.000000000000E+000      6  1.000000000000E+000  TR # PERLEN NSTP TSMULT Ss/tr (Stress period 46)
  1.000000000000E+000      6  1.000000000000E+000  TR # PERLEN NSTP TSMULT Ss/tr (Stress period 47)
  1.000000000000E+000      6  1.000000000000E+000  TR # PERLEN NSTP TSMULT Ss/tr (Stress period 48)
  1.000000000000E+000      6  1.000000000000E+000  TR # PERLEN NSTP TSMULT Ss/tr (Stress period 49)
  1.000000000000E+000      6  1.000000000000E+000  TR # PERLEN NSTP TSMULT Ss/tr (Stress period 50)
  1.000000000000E+000      6  1.000000000000E+000  TR # PERLEN NSTP TSMULT Ss/tr (Stress period 51)
  1.000000000000E+000      6  1.000000000000E+000  TR # PERLEN NSTP TSMULT Ss/tr (Stress period 52)
  1.000000000000E+000      6  1.000000000000E+000  TR # PERLEN NSTP TSMULT Ss/tr (Stress period 53)
  1.000000000000E+000      6  1.000000000000E+000  TR # PERLEN NSTP TSMULT Ss/tr (Stress period 54)
  1.000000000000E+000      6  1.000000000000E+000  TR # PERLEN NSTP TSMULT Ss/tr (Stress period 55)
  1.000000000000E+000      6  1.000000000000E+000  TR # PERLEN NSTP TSMULT Ss/tr (Stress period 56)
  1.000000000000E+000      6  1.000000000000E+000  TR # PERLEN NSTP TSMULT Ss/tr (Stress period 57)
  1.000000000000E+000      6  1.000000000000E+000  TR # PERLEN NSTP TSMULT Ss/tr (Stress period 58)
  1.000000000000E+000      6  1.000000000000E+000  TR # PERLEN NSTP TSMULT Ss/tr (Stress period 59)
  1.000000000000E+000      6  1.000000000000E+000  TR # PERLEN NSTP TSMULT Ss/tr (Stress period 60)
  1.000000000000E+000      6  1.000000000000E+000  TR # PERLEN NSTP TSMULT Ss/tr (Stress period 61)
  1.000000000000E+000      6  1.000000000000E+000  TR # PERLEN NSTP TSMULT Ss/tr (Stress period 62)
  1.000000000000E+000      6  1.000000000000E+000  TR # PERLEN NSTP TSMULT Ss/tr (Stress period 63)
  1.000000000000E+000      6  1.000000000000E+000  TR # PERLEN NSTP TSMULT Ss/tr (Stress period 64)
  1.000000000000E+000      6  1.000000000000E+000  TR # PERLEN NSTP TSMULT Ss/tr (Stress period 65)
  1.000000000000E+000      6  1.000000000000E+000  TR # PERLEN NSTP TSMULT Ss/tr (Stress period 66)
  1.000000000000E+000      6  1.000000000000E+000  TR # PERLEN NSTP TSMULT Ss/tr (Stress period 67)
  1.000000000000E+000      6  1.000000000000E+000  TR # PERLEN NSTP TSMULT Ss/tr (Stress period 68)
  1.000000000000E+000      6  1.000000000000E+000  TR # PERLEN NSTP TSMULT Ss/tr (Stress period 69)
  1.000000000000E+000      6  1.000000000000E+000  TR # PERLEN NSTP TSMULT Ss/tr (Stress period 70)
  1.000000000000E+000      6  1.000000000000E+000  TR # PERLEN NSTP TSMULT Ss/tr (Stress period 71)
  1.000000000000E+000      6  1.000000000000E+000  TR # PERLEN NSTP TSMULT Ss/tr (Stress period 72)
  1.000000000000E+000      6  1.000000000000E+000  TR # PERLEN NSTP TSMULT Ss/tr (Stress period 73)
  1.000000000000E+000      6  1.000000000000E+000  TR # PERLEN NSTP TSMULT Ss/tr (Stress period 74)
  1.000000000000E+000      6  1.000000000000E+000  TR # PERLEN NSTP TSMULT Ss/tr (Stress period 75)
  1.000000000000E+000      6  1.000000000000E+000  TR # PERLEN NSTP TSMULT Ss/tr (Stress period 76)
  1.000000000000E+000      6  1.000000000000E+000  TR # PERLEN NSTP TSMULT Ss/tr (Stress period 77)
  1.000000000000E+000      6  1.000000000000E+000  TR # PERLEN NSTP TSMULT Ss/tr (Stress period 78)
  1.000000000000E+000      6  1.000000000000E+000  TR # PERLEN NSTP TSMULT Ss/tr (Stress period 79)
  1.000000000000E+000      6  1.000000000000E+000  TR # PERLEN NSTP TSMULT Ss/tr (Stress period 80)
  1.000000000000E+000      6  1.000000000000E+000  TR # PERLEN NSTP TSMULT Ss/tr (Stress period 81)
  1.000000000000E+000      6  1.000000000000E+000  TR # PERLEN NSTP TSMULT Ss/tr (Stress period 82)
  1.000000000000E+000      6  1.000000000000E+000  TR # PERLEN NSTP TSMULT Ss/tr (Stress period 83)
  1.000000000000E+000      6  1.000000000000E+000  TR # PERLEN NSTP TSMULT Ss/tr (Stress period 84)
  1.000000000000E+000      6  1.000000000000E+000  TR # PERLEN NSTP TSMULT Ss/tr (Stress period 85)
  1.000000000000E+000      6  1.000000000000E+000  TR # PERLEN NSTP TSMULT Ss/tr (Stress period 86)
  1.000000000000E+000      6  1.000000000000E+000  TR # PERLEN NSTP TSMULT Ss/tr (Stress period 87)
  1.000000000000E+000      6  1.000000000000E+000  TR # PERLEN NSTP TSMULT Ss/tr (Stress period 88)
  1.000000000000E+000      6  1.000000000000E+000  TR # PERLEN NSTP TSMULT Ss/tr (Stress period 89)
  1.000000000000E+000      6  1.000000000000E+000  TR # PERLEN NSTP TSMULT Ss/tr (Stress period 90)
  1.000000000000E+000      6  1.000000000000E+000  TR # PERLEN NSTP TSMULT Ss/tr (Stress period 91)
  1.000000000000E+000      6  1.000000000000E+000  TR # PERLEN NSTP TSMULT Ss/tr (Stress period 92)
  1.000000000000E+000      6  1.000000000000E+000  TR # PERLEN NSTP TSMULT Ss/tr (Stress period 93)
  1.000000000000E+000      6  1.000000000000E+000  TR # PERLEN NSTP TSMULT Ss/tr (Stress period 94)
  1.000000000000E+000      6  1.000000000000E+000  TR # PERLEN NSTP TSMULT Ss/tr (Stress period 95)
  1.000000000000E+000      6  1.000000000000E+000  TR # PERLEN NSTP TSMULT Ss/tr (Stress period 96)
  1.000000000000E+000      6  1.000000000000E+000  TR # PERLEN NSTP TSMULT Ss/tr (Stress period 97)
  1.000000000000E+000      6  1.000000000000E+000  TR # PERLEN NSTP TSMULT Ss/tr (Stress period 98)
  1.000000000000E+000      6  1.000000000000E+000  TR # PERLEN NSTP TSMULT Ss/tr (Stress period 99)
  1.000000000000E+000      6  1.000000000000E+000  TR # PERLEN NSTP TSMULT Ss/tr (Stress period 100)
  1.000000000000E+000      6  1.000000000000E+000  TR # PERLEN NSTP TSMULT Ss/tr (Stress period 101)
  1.000000000000E+000      6  1.000000000000E+000  TR # PERLEN NSTP TSMULT Ss/tr (Stress period 102)
  1.000000000000E+000      6  1.000000000000E+000  TR # PERLEN NSTP TSMULT Ss/tr (Stress period 103)
  1.000000000000E+000      6  1.000000000000E+000  TR # PERLEN NSTP TSMULT Ss/tr (Stress period 104)
  1.000000000000E+000      6  1.000000000000E+000  TR # PERLEN NSTP TSMULT Ss/tr (Stress period 105)
  1.000000000000E+000      6  1.000000000000E+000  TR # PERLEN NSTP TSMULT Ss/tr (Stress period 106)
  1.000000000000E+000      6  1.000000000000E+000  TR # PERLEN NSTP TSMULT Ss/tr (Stress period 107)
  1.000000000000E+000      6  1.000000000000E+000  TR # PERLEN NSTP TSMULT Ss/tr (Stress period 108)
  1.000000000000E+000      6  1.000000000000E+000  TR # PERLEN NSTP TSMULT Ss/tr (Stress period 109)
  1.000000000000E+000      6  1.000000000000E+000  TR # PERLEN NSTP TSMULT Ss/tr (Stress period 110)
  1.000000000000E+000      6  1.000000000000E+000  TR # PERLEN NSTP TSMULT Ss/tr (Stress period 111)
  1.000000000000E+000      6  1.000000000000E+000  TR # PERLEN NSTP TSMULT Ss/tr (Stress period 112)
  1.000000000000E+000      6  1.000000000000E+000  TR # PERLEN NSTP TSMULT Ss/tr (Stress period 113)
  1.000000000000E+000      6  1.000000000000E+000  TR # PERLEN NSTP TSMULT Ss/tr (Stress period 114)
  1.000000000000E+000      6  1.000000000000E+000  TR # PERLEN NSTP TSMULT Ss/tr (Stress period 115)
  1.000000000000E+000      6  1.000000000000E+000  TR # PERLEN NSTP TSMULT Ss/tr (Stress period 116)
  1.000000000000E+000      6  1.000000000000E+000  TR # PERLEN NSTP TSMULT Ss/tr (Stress period 117)
  1.000000000000E+000      6  1.000000000000E+000  TR # PERLEN NSTP TSMULT Ss/tr (Stress period 118)
  1.000000000000E+000      6  1.000000000000E+000  TR # PERLEN NSTP TSMULT Ss/tr (Stress period 119)
  1.000000000000E+000      6  1.000000000000E+000  TR # PERLEN NSTP TSMULT Ss/tr (Stress period 120)
  1.000000000000E+000      6  1.000000000000E+000  TR # PERLEN NSTP TSMULT Ss/tr (Stress period 121)
  1.000000000000E+000      6  1.000000000000E+000  TR # PERLEN NSTP TSMULT Ss/tr (Stress period 122)
  1.000000000000E+000      6  1.000000000000E+000  TR # PERLEN NSTP TSMULT Ss/tr (Stress period 123)
  1.000000000000E+000      6  1.000000000000E+000  TR # PERLEN NSTP TSMULT Ss/tr (Stress period 124)
  1.000000000000E+000      6  1.000000000000E+000  TR # PERLEN NSTP TSMULT Ss/tr (Stress period 125)
  1.000000000000E+000      6  1.000000000000E+000  TR # PERLEN NSTP TSMULT Ss/tr (Stress period 126)
  1.000000000000E+000      6  1.000000000000E+000  TR # PERLEN NSTP TSMULT Ss/tr (Stress period 127)
  1.000000000000E+000      6  1.000000000000E+000  TR # PERLEN NSTP TSMULT Ss/tr (Stress period 128)
  1.000000000000E+000      6  1.000000000000E+000  TR # PERLEN NSTP TSMULT Ss/tr (Stress period 129)
  1.000000000000E+000      6  1.000000000000E+000  TR # PERLEN NSTP TSMULT Ss/tr (Stress period 130)
  1.000000000000E+000      6  1.000000000000E+000  TR # PERLEN NSTP TSMULT Ss/tr (Stress period 131)
  1.000000000000E+000      6  1.000000000000E+000  TR # PERLEN NSTP TSMULT Ss/tr (Stress period 132)
  1.000000000000E+000      6  1.000000000000E+000  TR # PERLEN NSTP TSMULT Ss/tr (Stress period 133)
  1.000000000000E+000      6  1.000000000000E+000  TR # PERLEN NSTP TSMULT Ss/tr (Stress period 134)
  1.000000000000E+000      6  1.000000000000E+000  TR # PERLEN NSTP TSMULT Ss/tr (Stress period 135)
  1.000000000000E+000      6  1.000000000000E+000  TR # PERLEN NSTP TSMULT Ss/tr (Stress period 136)
  1.000000000000E+000      6  1.000000000000E+000  TR # PERLEN NSTP TSMULT Ss/tr (Stress period 137)
  1.000000000000E+000      6  1.000000000000E+000  TR # PERLEN NSTP TSMULT Ss/tr (Stress period 138)
  1.000000000000E+000      6  1.000000000000E+000  TR # PERLEN NSTP TSMULT Ss/tr (Stress period 139)
  1.000000000000E+000      6  1.000000000000E+000  TR # PERLEN NSTP TSMULT Ss/tr (Stress period 140)
  1.000000000000E+000      6  1.000000000000E+000  TR # PERLEN NSTP TSMULT Ss/tr (Stress period 141)
  1.000000000000E+000      6  1.000000000000E+000  TR # PERLEN NSTP TSMULT Ss/tr (Stress period 142)
  1.000000000000E+000      6  1.000000000000E+000  TR # PERLEN NSTP TSMULT Ss/tr (Stress period 143)
  1.000000000000E+000      6  1.000000000000E+000  TR # PERLEN NSTP TSMULT Ss/tr (Stress period 144)
  1.000000000000E+000      6  1.000000000000E+000  TR # PERLEN NSTP TSMULT Ss/tr (Stress period 145)
  1.000000000000E+000      6  1.000000000000E+000  TR # PERLEN NSTP TSMULT Ss/tr (Stress period 146)
  1.000000000000E+000      6  1.000000000000E+000  TR # PERLEN NSTP TSMULT Ss/tr (Stress period 147)
  1.000000000000E+000      6  1.000000000000E+000  TR # PERLEN NSTP TSMULT Ss/tr (Stress period 148)
  1.000000000000E+000      6  1.000000000000E+000  TR # PERLEN NSTP TSMULT Ss/tr (Stress period 149)
  1.000000000000E+000      6  1.000000000000E+000  TR # PERLEN NSTP TSMULT Ss/tr (Stress period 150)
  1.000000000000E+000      6  1.000000000000E+000  TR # PERLEN NSTP TSMULT Ss/tr (Stress period 151)
  1.000000000000E+000      6  1.000000000000E+000  TR # PERLEN NSTP TSMULT Ss/tr (Stress period 152)
  1.000000000000E+000      6  1.000000000000E+000  TR # PERLEN NSTP TSMULT Ss/tr (Stress period 153)
  1.000000000000E+000      6  1.000000000000E+000  TR # PERLEN NSTP TSMULT Ss/tr (Stress period 154)
  1.000000000000E+000      6  1.000000000000E+000  TR # PERLEN NSTP TSMULT Ss/tr (Stress period 155)
  1.000000000000E+000      6  1.000000000000E+000  TR # PERLEN NSTP TSMULT Ss/tr (Stress period 156)
  1.000000000000E+000      6  1.000000000000E+000  TR # PERLEN NSTP TSMULT Ss/tr (Stress period 157)
  1.000000000000E+000      6  1.000000000000E+000  TR # PERLEN NSTP TSMULT Ss/tr (Stress period 158)
  1.000000000000E+000      6  1.000000000000E+000  TR # PERLEN NSTP TSMULT Ss/tr (Stress period 159)
  1.000000000000E+000      6  1.000000000000E+000  TR # PERLEN NSTP TSMULT Ss/tr (Stress period 160)
  1.000000000000E+000      6  1.000000000000E+000  TR # PERLEN NSTP TSMULT Ss/tr (Stress period 161)
  1.000000000000E+000      6  1.000000000000E+000  TR # PERLEN NSTP TSMULT Ss/tr (Stress period 162)
  1.000000000000E+000      6  1.000000000000E+000  TR # PERLEN NSTP TSMULT Ss/tr (Stress period 163)
  1.000000000000E+000      6  1.000000000000E+000  TR # PERLEN NSTP TSMULT Ss/tr (Stress period 164)
  1.000000000000E+000      6  1.000000000000E+000  TR # PERLEN NSTP TSMULT Ss/tr (Stress period 165)
  1.000000000000E+000      6  1.000000000000E+000  TR # PERLEN NSTP TSMULT Ss/tr (Stress period 166)
  1.000000000000E+000      6  1.000000000000E+000  TR # PERLEN NSTP TSMULT Ss/tr (Stress period 167)
  1.000000000000E+000      6  1.000000000000E+000  TR # PERLEN NSTP TSMULT Ss/tr (Stress period 168)
  1.000000000000E+000      6  1.000000000000E+000  TR # PERLEN NSTP TSMULT Ss/tr (Stress period 169)
  1.000000000000E+000      6  1.000000000000E+000  TR # PERLEN NSTP TSMULT Ss/tr (Stress period 170)
  1.000000000000E+000      6  1.000000000000E+000  TR # PERLEN NSTP TSMULT Ss/tr (Stress period 171)
  1.000000000000E+000      6  1.000000000000E+000  TR # PERLEN NSTP TSMULT Ss/tr (Stress period 172)
  1.000000000000E+000      6  1.000000000000E+000  TR # PERLEN NSTP TSMULT Ss/tr (Stress period 173)
  1.000000000000E+000      6  1.000000000000E+000  TR # PERLEN NSTP TSMULT Ss/tr (Stress period 174)
  1.000000000000E+000      6  1.000000000000E+000  TR # PERLEN NSTP TSMULT Ss/tr (Stress period 175)
  1.000000000000E+000      6  1.000000000000E+000  TR # PERLEN NSTP TSMULT Ss/tr (Stress period 176)
  1.000000000000E+000      6  1.000000000000E+000  TR # PERLEN NSTP TSMULT Ss/tr (Stress period 177)
  1.000000000000E+000      6  1.000000000000E+000  TR # PERLEN NSTP TSMULT Ss/tr (Stress period 178)
  1.000000000000E+000      6  1.000000000000E+000  TR # PERLEN NSTP TSMULT Ss/tr (Stress period 179)
  1.000000000000E+000      6  1.000000000000E+000  TR # PERLEN NSTP TSMULT Ss/tr (Stress period 180)
  1.000000000000E+000      6  1.000000000000E+000  TR # PERLEN NSTP TSMULT Ss/tr (Stress period 181)
  1.000000000000E+000      6  1.000000000000E+000  TR # PERLEN NSTP TSMULT Ss/tr (Stress period 182)
  1.000000000000E+000      6  1.000000000000E+000  TR # PERLEN NSTP TSMULT Ss/tr (Stress period 183)
  1.000000000000E+000      6  1.000000000000E+000  TR # PERLEN NSTP TSMULT Ss/tr (Stress period 184)
  1.000000000000E+000      6  1.000000000000E+000  TR # PERLEN NSTP TSMULT Ss/tr (Stress period 185)
  1.000000000000E+000      6  1.000000000000E+000  TR # PERLEN NSTP TSMULT Ss/tr (Stress period 186)
  1.000000000000E+000      6  1.000000000000E+000  TR # PERLEN NSTP TSMULT Ss/tr (Stress period 187)
  1.000000000000E+000      6  1.000000000000E+000  TR # PERLEN NSTP TSMULT Ss/tr (Stress period 188)
  1.000000000000E+000      6  1.000000000000E+000  TR # PERLEN NSTP TSMULT Ss/tr (Stress period 189)
  1.000000000000E+000      6  1.000000000000E+000  TR # PERLEN NSTP TSMULT Ss/tr (Stress period 190)
  1.000000000000E+000      6  1.000000000000E+000  TR # PERLEN NSTP TSMULT Ss/tr (Stress period 191)
  1.000000000000E+000      6  1.000000000000E+000  TR # PERLEN NSTP TSMULT Ss/tr (Stress period 192)
  1.000000000000E+000      6  1.000000000000E+000  TR # PERLEN NSTP TSMULT Ss/tr (Stress period 193)
  1.000000000000E+000      6  1.000000000000E+000  TR # PERLEN NSTP TSMULT Ss/tr (Stress period 194)
  1.000000000000E+000      6  1.000000000000E+000  TR # PERLEN NSTP TSMULT Ss/tr (Stress period 195)
  1.000000000000E+000      6  1.000000000000E+000  TR # PERLEN NSTP TSMULT Ss/tr (Stress period 196)
  1.000000000000E+000      6  1.000000000000E+000  TR # PERLEN NSTP TSMULT Ss/tr (Stress period 197)
  1.000000000000E+000      6  1.000000000000E+000  TR # PERLEN NSTP TSMULT Ss/tr (Stress period 198)
  1.000000000000E+000      6  1.000000000000E+000  TR # PERLEN NSTP TSMULT Ss/tr (Stress period 199)
  1.000000000000E+000      6  1.000000000000E+000  TR # PERLEN NSTP TSMULT Ss/tr (Stress period 200)
  1.000000000000E+000      6  1.000000000000E+000  TR # PERLEN NSTP TSMULT Ss/tr (Stress period 201)
  1.000000000000E+000      6  1.000000000000E+000  TR # PERLEN NSTP TSMULT Ss/tr (Stress period 202)
  1.000000000000E+000      6  1.000000000000E+000  TR # PERLEN NSTP TSMULT Ss/tr (Stress period 203)
  1.000000000000E+000      6  1.000000000000E+000  TR # PERLEN NSTP TSMULT Ss/tr (Stress period 204)
  1.000000000000E+000      6  1.000000000000E+000  TR # PERLEN NSTP TSMULT Ss/tr (Stress period 205)
  1.000000000000E+000      6  1.000000000000E+000  TR # PERLEN NSTP TSMULT Ss/tr (Stress period 206)
  1.000000000000E+000      6  1.000000000000E+000  TR # PERLEN NSTP TSMULT Ss/tr (Stress period 207)
  1.000000000000E+000      6  1.000000000000E+000  TR # PERLEN NSTP TSMULT Ss/tr (Stress period 208)
  1.000000000000E+000      6  1.000000000000E+000  TR # PERLEN NSTP TSMULT Ss/tr (Stress period 209)
  1.000000000000E+000      6  1.000000000000E+000  TR # PERLEN NSTP TSMULT Ss/tr (Stress period 210)
  1.000000000000E+000      6  1.000000000000E+000  TR # PERLEN NSTP TSMULT Ss/tr (Stress period 211)
  1.000000000000E+000      6  1.000000000000E+000  TR # PERLEN NSTP TSMULT Ss/tr (Stress period 212)
  1.000000000000E+000      6  1.000000000000E+000  TR # PERLEN NSTP TSMULT Ss/tr (Stress period 213)
  1.000000000000E+000      6  1.000000000000E+000  TR # PERLEN NSTP TSMULT Ss/tr (Stress period 214)
  1.000000000000E+000      6  1.000000000000E+000  TR # PERLEN NSTP TSMULT Ss/tr (Stress period 215)
  1.000000000000E+000      6  1.000000000000E+000  TR # PERLEN NSTP TSMULT Ss/tr (Stress period 216)
  1.000000000000E+000      6  1.000000000000E+000  TR # PERLEN NSTP TSMULT Ss/tr (Stress period 217)
  1.000000000000E+000      6  1.000000000000E+000  TR # PERLEN NSTP TSMULT Ss/tr (Stress period 218)
  1.000000000000E+000      6  1.000000000000E+000  TR # PERLEN NSTP TSMULT Ss/tr (Stress period 219)
  1.000000000000E+000      6  1.000000000000E+000  TR # PERLEN NSTP TSMULT Ss/tr (Stress period 220)
  1.000000000000E+000      6  1.000000000000E+000  TR # PERLEN NSTP TSMULT Ss/tr (Stress period 221)
  1.000000000000E+000      6  1.000000000000E+000  TR # PERLEN NSTP TSMULT Ss/tr (Stress period 222)
  1.000000000000E+000      6  1.000000000000E+000  TR # PERLEN NSTP TSMULT Ss/tr (Stress period 223)
  1.000000000000E+000      6  1.000000000000E+000  TR # PERLEN NSTP TSMULT Ss/tr (Stress period 224)
  1.000000000000E+000      6  1.000000000000E+000  TR # PERLEN NSTP TSMULT Ss/tr (Stress period 225)
  1.000000000000E+000      6  1.000000000000E+000  TR # PERLEN NSTP TSMULT Ss/tr (Stress period 226)
  1.000000000000E+000      6  1.000000000000E+000  TR # PERLEN NSTP TSMULT Ss/tr (Stress period 227)
  1.000000000000E+000      6  1.000000000000E+000  TR # PERLEN NSTP TSMULT Ss/tr (Stress period 228)
  1.000000000000E+000      6  1.000000000000E+000  TR # PERLEN NSTP TSMULT Ss/tr (Stress period 229)
  1.000000000000E+000      6  1.000000000000E+000  TR # PERLEN NSTP TSMULT Ss/tr (Stress period 230)
  1.000000000000E+000      6  1.000000000000E+000  TR # PERLEN NSTP TSMULT Ss/tr (Stress period 231)
  1.000000000000E+000      6  1.000000000000E+000  TR # PERLEN NSTP TSMULT Ss/tr (Stress period 232)
  1.000000000000E+000      6  1.000000000000E+000  TR # PERLEN NSTP TSMULT Ss/tr (Stress period 233)
  1.000000000000E+000      6  1.000000000000E+000  TR # PERLEN NSTP TSMULT Ss/tr (Stress period 234)
  1.000000000000E+000      6  1.000000000000E+000  TR # PERLEN NSTP TSMULT Ss/tr (Stress period 235)
  1.000000000000E+000      6  1.000000000000E+000  TR # PERLEN NSTP TSMULT Ss/tr (Stress period 236)
  1.000000000000E+000      6  1.000000000000E+000  TR # PERLEN NSTP TSMULT Ss/tr (Stress period 237)
  1.000000000000E+000      6  1.000000000000E+000  TR # PERLEN NSTP TSMULT Ss/tr (Stress period 238)
  1.000000000000E+000      6  1.000000000000E+000  TR # PERLEN NSTP TSMULT Ss/tr (Stress period 239)
  1.000000000000E+000      6  1.000000000000E+000  TR # PERLEN NSTP TSMULT Ss/tr (Stress period 240)
  1.000000000000E+000      6  1.000000000000E+000  TR # PERLEN NSTP TSMULT Ss/tr (Stress period 241)
  1.000000000000E+000      6  1.000000000000E+000  TR # PERLEN NSTP TSMULT Ss/tr (Stress period 242)
  1.000000000000E+000      6  1.000000000000E+000  TR # PERLEN NSTP TSMULT Ss/tr (Stress period 243)
  1.000000000000E+000      6  1.000000000000E+000  TR # PERLEN NSTP TSMULT Ss/tr (Stress period 244)
  1.000000000000E+000      6  1.000000000000E+000  TR # PERLEN NSTP TSMULT Ss/tr (Stress period 245)
  1.000000000000E+000      6  1.000000000000E+000  TR # PERLEN NSTP TSMULT Ss/tr (Stress period 246)
  1.000000000000E+000      6  1.000000000000E+000  TR # PERLEN NSTP TSMULT Ss/tr (Stress period 247)
  1.000000000000E+000      6  1.000000000000E+000  TR # PERLEN NSTP TSMULT Ss/tr (Stress period 248)
  1.000000000000E+000      6  1.000000000000E+000  TR # PERLEN NSTP TSMULT Ss/tr (Stress period 249)
  1.000000000000E+000      6  1.000000000000E+000  TR # PERLEN NSTP TSMULT Ss/tr (Stress period 250)
  1.000000000000E+000      6  1.000000000000E+000  TR # PERLEN NSTP TSMULT Ss/tr (Stress period 251)
  1.000000000000E+000      6  1.000000000000E+000  TR # PERLEN NSTP TSMULT Ss/tr (Stress period 252)
  1.000000000000E+000      6  1.000000000000E+000  TR # PERLEN NSTP TSMULT Ss/tr (Stress period 253)
  1.000000000000E+000      6  1.000000000000E+000  TR # PERLEN NSTP TSMULT Ss/tr (Stress period 254)
  1.000000000000E+000      6  1.000000000000E+000  TR # PERLEN NSTP TSMULT Ss/tr (Stress period 255)
  1.000000000000E+000      6  1.000000000000E+000  TR # PERLEN NSTP TSMULT Ss/tr (Stress period 256)
  1.000000000000E+000      6  1.000000000000E+000  TR # PERLEN NSTP TSMULT Ss/tr (Stress period 257)
  1.000000000000E+000      6  1.000000000000E+000  TR # PERLEN NSTP TSMULT Ss/tr (Stress period 258)
  1.000000000000E+000      6  1.000000000000E+000  TR # PERLEN NSTP TSMULT Ss/tr (Stress period 259)
  1.000000000000E+000      6  1.000000000000E+000  TR # PERLEN NSTP TSMULT Ss/tr (Stress period 260)
  1.000000000000E+000      6  1.000000000000E+000  TR # PERLEN NSTP TSMULT Ss/tr (Stress period 261)
  1.000000000000E+000      6  1.000000000000E+000  TR # PERLEN NSTP TSMULT Ss/tr (Stress period 262)
  1.000000000000E+000      6  1.000000000000E+000  TR # PERLEN NSTP TSMULT Ss/tr (Stress period 263)
  1.000000000000E+000      6  1.000000000000E+000  TR # PERLEN NSTP TSMULT Ss/tr (Stress period 264)
  1.000000000000E+000      6  1.000000000000E+000  TR # PERLEN NSTP TSMULT Ss/tr (Stress period 265)
  1.000000000000E+000      6  1.000000000000E+000  TR # PERLEN NSTP TSMULT Ss/tr (Stress period 266)
  1.000000000000E+000      6  1.000000000000E+000  TR # PERLEN NSTP TSMULT Ss/tr (Stress period 267)
  1.000000000000E+000      6  1.000000000000E+000  TR # PERLEN NSTP TSMULT Ss/tr (Stress period 268)
  1.000000000000E+000      6  1.000000000000E+000  TR # PERLEN NSTP TSMULT Ss/tr (Stress period 269)
  1.000000000000E+000      6  1.000000000000E+000  TR # PERLEN NSTP TSMULT Ss/tr (Stress period 270)
  1.000000000000E+000      6  1.000000000000E+000  TR # PERLEN NSTP TSMULT Ss/tr (Stress period 271)
  1.000000000000E+000      6  1.000000000000E+000  TR # PERLEN NSTP TSMULT Ss/tr (Stress period 272)
  1.000000000000E+000      6  1.000000000000E+000  TR # PERLEN NSTP TSMULT Ss/tr (Stress period 273)
  1.000000000000E+000      6  1.000000000000E+000  TR # PERLEN NSTP TSMULT Ss/tr (Stress period 274)
  1.000000000000E+000      6  1.000000000000E+000  TR # PERLEN NSTP TSMULT Ss/tr (Stress period 275)
  1.000000000000E+000      6  1.000000000000E+000  TR # PERLEN NSTP TSMULT Ss/tr (Stress period 276)
  1.000000000000E+000      6  1.000000000000E+000  TR # PERLEN NSTP TSMULT Ss/tr (Stress period 277)
  1.000000000000E+000      6  1.000000000000E+000  TR # PERLEN NSTP TSMULT Ss/tr (Stress period 278)
  1.000000000000E+000      6  1.000000000000E+000  TR # PERLEN NSTP TSMULT Ss/tr (Stress period 279)
  1.000000000000E+000      6  1.000000000000E+000  TR # PERLEN NSTP TSMULT Ss/tr (Stress period 280)
  1.000000000000E+000      6  1.000000000000E+000  TR # PERLEN NSTP TSMULT Ss/tr (Stress period 281)