# Name File for MODFLOW created on 5/18/2019 by ModelMuse Version 3.10.0.60
LIST             11 ImportedP10.lst REPLACE
DATA(BINARY)      9 ImportedP10.cbc REPLACE
DIS              12 ImportedP10.dis OLD
BAS6             13 ImportedP10.bas OLD
OC               39 ImportedP10.oc OLD
DATA             37 ImportedP10.fhd REPLACE
DATA             38 ImportedP10.fdn REPLACE
PCG              18 ImportedP10.pcg OLD
BCF6             64 ImportedP10.bcf OLD
LMT6            135 ImportedP10.lmt OLD
CHD              17 ImportedP10.chd OLD
WEL              20 ImportedP10.wel OLD
RCH              24 ImportedP10.rch OLD
