# Name File for MODFLOW created on 12/14/2015 by ModelMuse
LIST             11 ImportedValuesTest.lst REPLACE
DATA(BINARY)      9 ImportedValuesTest.cbc REPLACE
DIS              12 ImportedValuesTest.dis OLD
BAS6             13 ImportedValuesTest.bas OLD
OC               39 ImportedValuesTest.oc OLD
DATA             37 ImportedValuesTest.fhd REPLACE
DATA             38 ImportedValuesTest.fdn REPLACE
PCG              18 ImportedValuesTest.pcg OLD
LPF              14 ImportedValuesTest.lpf OLD
