# Name File for MT3DMS created on 6/7/2012 by ModelMuse
LIST 16 ImportedP2_nonequilibrium.mls
FTL 10 ImportedP2_nonequilibrium.ftl
DATA 17 ImportedP2_nonequilibrium.cnf
BTN 1 ImportedP2_nonequilibrium.btn
DATA(BINARY) 201 ImportedP2_nonequilibrium_Comp1.ucn
DATA(BINARY) 301 ImportedP2_nonequilibrium_Comp1_S.ucn
DATA 601 ImportedP2_nonequilibrium_Comp1._mas
DATA 401 ImportedP2_nonequilibrium_Comp1.mto
ADV 2 ImportedP2_nonequilibrium.adv
DSP 3 ImportedP2_nonequilibrium.dsp
SSM 4 ImportedP2_nonequilibrium.ssm
RCT 8 ImportedP2_nonequilibrium.rct
GCG 9 ImportedP2_nonequilibrium.gcg
