# Name File for MODFLOW created on 2/1/2017 by ModelMuse Version 3.8.1.27
LIST             11 ..\..\output\output.ImportedValuesTest\ImportedValuesTest.lst REPLACE
DATA(BINARY)      9 ..\..\output\output.ImportedValuesTest\ImportedValuesTest.cbc REPLACE
DIS              12 ..\..\model\model.ImportedValuesTest\ImportedValuesTest.dis OLD
BAS6             13 ..\..\model\model.ImportedValuesTest\ImportedValuesTest.bas OLD
OC               39 ..\..\model\model.ImportedValuesTest\ImportedValuesTest.oc OLD
DATA             37 ..\..\output\output.ImportedValuesTest\ImportedValuesTest.fhd REPLACE
DATA             38 ..\..\output\output.ImportedValuesTest\ImportedValuesTest.fdn REPLACE
PCG              18 ..\..\model\model.ImportedValuesTest\ImportedValuesTest.pcg OLD
LPF              14 ..\..\model\model.ImportedValuesTest\ImportedValuesTest.lpf OLD
