# Name File for MODFLOW created on 5/18/2019 by ModelMuse Version 3.10.0.60
LIST             11 ..\..\output\output.ImportedP2_nonlinear\ImportedP2_nonlinear.lst REPLACE
DATA(BINARY)      9 ..\..\output\output.ImportedP2_nonlinear\ImportedP2_nonlinear.cbc REPLACE
DIS              12 ..\..\model\model.ImportedP2_nonlinear\ImportedP2_nonlinear.dis OLD
BAS6             13 ..\..\model\model.ImportedP2_nonlinear\ImportedP2_nonlinear.bas OLD
OC               39 ..\..\model\model.ImportedP2_nonlinear\ImportedP2_nonlinear.oc OLD
DATA             37 ..\..\output\output.ImportedP2_nonlinear\ImportedP2_nonlinear.fhd REPLACE
DATA             38 ..\..\output\output.ImportedP2_nonlinear\ImportedP2_nonlinear.fdn REPLACE
SIP              35 ..\..\model\model.ImportedP2_nonlinear\ImportedP2_nonlinear.sip OLD
BCF6             64 ..\..\model\model.ImportedP2_nonlinear\ImportedP2_nonlinear.bcf OLD
LMT6            135 ..\..\model\model.ImportedP2_nonlinear\ImportedP2_nonlinear.lmt OLD
CHD              17 ..\..\model\model.ImportedP2_nonlinear\ImportedP2_nonlinear.chd OLD
