# Name File for MODFLOW created on 5/18/2019 by ModelMuse Version 3.10.0.60
LIST             11 ..\..\output\output.ImportedP5\ImportedP5.lst REPLACE
DATA(BINARY)      9 ..\..\output\output.ImportedP5\ImportedP5.cbc REPLACE
DIS              12 ..\..\model\model.ImportedP5\ImportedP5.dis OLD
BAS6             13 ..\..\model\model.ImportedP5\ImportedP5.bas OLD
OC               39 ..\..\model\model.ImportedP5\ImportedP5.oc OLD
DATA             37 ..\..\output\output.ImportedP5\ImportedP5.fhd REPLACE
DATA             38 ..\..\output\output.ImportedP5\ImportedP5.fdn REPLACE
SIP              35 ..\..\model\model.ImportedP5\ImportedP5.sip OLD
BCF6             64 ..\..\model\model.ImportedP5\ImportedP5.bcf OLD
LMT6            135 ..\..\model\model.ImportedP5\ImportedP5.lmt OLD
CHD              17 ..\..\model\model.ImportedP5\ImportedP5.chd OLD
WEL              20 ..\..\model\model.ImportedP5\ImportedP5.wel OLD
