# Name File for MT3DMS created on 6/7/2012 by ModelMuse
LIST 16 ImportedP5.mls
FTL 10 ImportedP5.ftl
DATA 17 ImportedP5.cnf
BTN 1 ImportedP5.btn
DATA(BINARY) 201 ImportedP5_Comp1.ucn
DATA 601 ImportedP5_Comp1._mas
DATA 401 ImportedP5_Comp1.mto
ADV 2 ImportedP5.adv
DSP 3 ImportedP5.dsp
SSM 4 ImportedP5.ssm
GCG 9 ImportedP5.gcg
