# Name File for MT3DMS created on 6/7/2012 by ModelMuse
LIST 16 ImportMt3dSteadyState.mls
FTL 10 ImportMt3dSteadyState.ftl
DATA 17 ImportMt3dSteadyState.cnf
BTN 1 ImportMt3dSteadyState.btn
DATA(BINARY) 201 ImportMt3dSteadyState_Comp1.ucn
DATA 601 ImportMt3dSteadyState_Comp1._mas
DATA 401 ImportMt3dSteadyState_Comp1.mto
ADV 2 ImportMt3dSteadyState.adv
DSP 3 ImportMt3dSteadyState.dsp
SSM 4 ImportMt3dSteadyState.ssm
GCG 9 ImportMt3dSteadyState.gcg
