# Name File for MT3DMS created on 6/7/2012 by ModelMuse
LIST 16 ImportedP3.mls
FTL 10 ImportedP3.ftl
DATA 17 ImportedP3.cnf
BTN 1 ImportedP3.btn
DATA(BINARY) 201 ImportedP3_Comp1.ucn
DATA 601 ImportedP3_Comp1._mas
DATA 401 ImportedP3_Comp1.mto
ADV 2 ImportedP3.adv
DSP 3 ImportedP3.dsp
SSM 4 ImportedP3.ssm
GCG 9 ImportedP3.gcg
