# Name File for MODFLOW created on 2/1/2017 by ModelMuse Version 3.8.1.27
LIST             11 ..\..\output\output.importedSWR\importedSWR.lst REPLACE
DATA(BINARY)      9 ..\..\output\output.importedSWR\importedSWR.cbc REPLACE
DIS              12 ..\..\model\model.importedSWR\importedSWR.dis OLD
BAS6             13 ..\..\model\model.importedSWR\importedSWR.bas OLD
OC               39 ..\..\model\model.importedSWR\importedSWR.oc OLD
DATA             37 ..\..\output\output.importedSWR\importedSWR.fhd REPLACE
DATA             38 ..\..\output\output.importedSWR\importedSWR.fdn REPLACE
NWT             133 ..\..\model\model.importedSWR\importedSWR.nwt OLD
UPW             134 ..\..\model\model.importedSWR\importedSWR.upw OLD
GHB              19 ..\..\model\model.importedSWR\importedSWR.ghb OLD
SWR             171 ..\..\model\model.importedSWR\importedSWR.swr OLD
DATA(BINARY)    172 ..\..\output\output.importedSWR\importedSWR.Swr_ReachGroupFlows_B REPLACE
DATA            173 ..\..\output\output.importedSWR\importedSWR.Swr_ReachStage_A REPLACE
DATA(BINARY)    174 ..\..\output\output.importedSWR\importedSWR.Swr_ReachExchange_B REPLACE
DATA            181 ..\..\output\output.importedSWR\importedSWR.Swr_Convergence REPLACE
DATA            178 ..\..\output\output.importedSWR\importedSWR.Swr_RIV REPLACE
DATA            179 ..\..\output\output.importedSWR\importedSWR.Swr_Obs_A REPLACE
DATA          20205 ..\..\model\model.importedSWR\ConstantStage.dat OLD
UZF              31 ..\..\model\model.importedSWR\importedSWR.uzf OLD
