# Name File for MT3DMS created on 10/11/2018 by ModelMuse
LIST 16 ..\..\output\output.ImportMt3dP07_MT3DMS\ImportMt3dP07.mls
FTL 10 ..\..\output\output.ImportMt3dP07\ImportMt3dP07.ftl
DATA 17 ..\..\output\output.ImportMt3dP07_MT3DMS\ImportMt3dP07.cnf
BTN 1 ..\..\model\model.ImportMt3dP07_MT3DMS\ImportMt3dP07.btn
DATA(BINARY) 201 ..\..\output\output.ImportMt3dP07_MT3DMS\ImportMt3dP07_Comp1.ucn
DATA 601 ..\..\output\output.ImportMt3dP07_MT3DMS\ImportMt3dP07_Comp1._mas
DATA 401 ..\..\output\output.ImportMt3dP07_MT3DMS\ImportMt3dP07_Comp1.mto
ADV 2 ..\..\model\model.ImportMt3dP07_MT3DMS\ImportMt3dP07.adv
DSP 3 ..\..\model\model.ImportMt3dP07_MT3DMS\ImportMt3dP07.dsp
SSM 4 ..\..\model\model.ImportMt3dP07_MT3DMS\ImportMt3dP07.ssm
GCG 9 ..\..\model\model.ImportMt3dP07_MT3DMS\ImportMt3dP07.gcg
