# Discretization File created on 1/20/2023 by ModelMuse version 5.1.1.8.
# MT3DMS Benchmark Test Problem #10
# 3-D Flow and Transport
# Upper left corner: (0, 0)
# Lower left corner: (0, -20450)
# Upper right corner: (11600, 0)
# Lower right corner: (11600, -20450)
# Grid angle (in degrees counterclockwise): 0
     4    61    40     1     4     1 # NLAY, NROW, NCOL, NPER, ITMUNI, LENUNI
     0     0     0     0 # LAYCB
INTERNAL 1.0 (FREE)       12 # DELR
  2.000000000000E+003   1.600000000000E+003   8.000000000000E+002   4.000000000000E+002   2.000000000000E+002   1.000000000000E+002   5.000000000000E+001   5.000000000000E+001   5.000000000000E+001   5.000000000000E+001 
  5.000000000000E+001   5.000000000000E+001   5.000000000000E+001   5.000000000000E+001   5.000000000000E+001   5.000000000000E+001   5.000000000000E+001   5.000000000000E+001   5.000000000000E+001   5.000000000000E+001 
  5.000000000000E+001   5.000000000000E+001   5.000000000000E+001   5.000000000000E+001   5.000000000000E+001   5.000000000000E+001   5.000000000000E+001   5.000000000000E+001   5.000000000000E+001   5.000000000000E+001 
  5.000000000000E+001   5.000000000000E+001   5.000000000000E+001   5.000000000000E+001   1.000000000000E+002   2.000000000000E+002   4.000000000000E+002   8.000000000000E+002   1.600000000000E+003   2.000000000000E+003 
INTERNAL 1.0 (FREE)       12 # DELC
  2.000000000000E+003   2.000000000000E+003   2.000000000000E+003   1.600000000000E+003   8.000000000000E+002   4.000000000000E+002   2.000000000000E+002   1.000000000000E+002   5.000000000000E+001   5.000000000000E+001 
  5.000000000000E+001   5.000000000000E+001   5.000000000000E+001   5.000000000000E+001   5.000000000000E+001   5.000000000000E+001   5.000000000000E+001   5.000000000000E+001   5.000000000000E+001   5.000000000000E+001 
  5.000000000000E+001   5.000000000000E+001   5.000000000000E+001   5.000000000000E+001   5.000000000000E+001   5.000000000000E+001   5.000000000000E+001   5.000000000000E+001   5.000000000000E+001   5.000000000000E+001 
  5.000000000000E+001   5.000000000000E+001   5.000000000000E+001   5.000000000000E+001   5.000000000000E+001   5.000000000000E+001   5.000000000000E+001   5.000000000000E+001   5.000000000000E+001   5.000000000000E+001 
  5.000000000000E+001   5.000000000000E+001   5.000000000000E+001   5.000000000000E+001   5.000000000000E+001   5.000000000000E+001   5.000000000000E+001   5.000000000000E+001   5.000000000000E+001   5.000000000000E+001 
  5.000000000000E+001   5.000000000000E+001   5.000000000000E+001   1.000000000000E+002   2.000000000000E+002   4.000000000000E+002   8.000000000000E+002   1.600000000000E+003   2.000000000000E+003   2.000000000000E+003 
  2.000000000000E+003 
CONSTANT     7.800000000000E+002  # TOP
CONSTANT     7.550000000000E+002  # BOTM, Layer 1
CONSTANT     7.300000000000E+002  # BOTM, Layer 2
CONSTANT     7.050000000000E+002  # BOTM, Layer 3
CONSTANT     6.800000000000E+002  # BOTM, Layer 4
  1.000000000000E+003      1  1.000000000000E+000  SS # PERLEN NSTP TSMULT Ss/tr (Stress period 1) Time =  0.000000000000E+000  -  1.000000000000E+003 
