# Name File for MT3DMS created on 9/19/2020 by ModelMuse
LIST 16 ImportedP1_Case1c.mls
FTL 10 ImportedP1_Case1c.ftl
DATA 17 ImportedP1_Case1c.cnf
BTN 1 ImportedP1_Case1c.btn
DATA(BINARY) 201 ImportedP1_Case1c_Comp1.ucn
DATA(BINARY) 301 ImportedP1_Case1c_Comp1_S.ucn
DATA 601 ImportedP1_Case1c_Comp1._mas
DATA 401 ImportedP1_Case1c_Comp1.mto
ADV 2 ImportedP1_Case1c.adv
DSP 3 ImportedP1_Case1c.dsp
SSM 4 ImportedP1_Case1c.ssm
RCT 8 ImportedP1_Case1c.rct
GCG 9 ImportedP1_Case1c.gcg
