# Name File for MODFLOW created on 5/18/2019 by ModelMuse Version 3.10.0.60
LIST             11 ..\..\output\output.ImportedP2_nonequilibrium\ImportedP2_nonequilibrium.lst REPLACE
DATA(BINARY)      9 ..\..\output\output.ImportedP2_nonequilibrium\ImportedP2_nonequilibrium.cbc REPLACE
DIS              12 ..\..\model\model.ImportedP2_nonequilibrium\ImportedP2_nonequilibrium.dis OLD
BAS6             13 ..\..\model\model.ImportedP2_nonequilibrium\ImportedP2_nonequilibrium.bas OLD
OC               39 ..\..\model\model.ImportedP2_nonequilibrium\ImportedP2_nonequilibrium.oc OLD
DATA             37 ..\..\output\output.ImportedP2_nonequilibrium\ImportedP2_nonequilibrium.fhd REPLACE
DATA             38 ..\..\output\output.ImportedP2_nonequilibrium\ImportedP2_nonequilibrium.fdn REPLACE
SIP              35 ..\..\model\model.ImportedP2_nonequilibrium\ImportedP2_nonequilibrium.sip OLD
BCF6             64 ..\..\model\model.ImportedP2_nonequilibrium\ImportedP2_nonequilibrium.bcf OLD
LMT6            135 ..\..\model\model.ImportedP2_nonequilibrium\ImportedP2_nonequilibrium.lmt OLD
CHD              17 ..\..\model\model.ImportedP2_nonequilibrium\ImportedP2_nonequilibrium.chd OLD
