# Name File for MT3DMS created on 10/11/2018 by ModelMuse
LIST 16 ..\..\output\output.ImportMt3dmsReinject_MT3DMS\ImportMt3dmsReinject.mls
FTL 10 ..\..\output\output.ImportMt3dmsReinject\ImportMt3dmsReinject.ftl
DATA 17 ..\..\output\output.ImportMt3dmsReinject_MT3DMS\ImportMt3dmsReinject.cnf
BTN 1 ..\..\model\model.ImportMt3dmsReinject_MT3DMS\ImportMt3dmsReinject.btn
DATA(BINARY) 201 ..\..\output\output.ImportMt3dmsReinject_MT3DMS\ImportMt3dmsReinject_Chem1.ucn
DATA 601 ..\..\output\output.ImportMt3dmsReinject_MT3DMS\ImportMt3dmsReinject_Chem1._mas
DATA 401 ..\..\output\output.ImportMt3dmsReinject_MT3DMS\ImportMt3dmsReinject_Chem1.mto
ADV 2 ..\..\model\model.ImportMt3dmsReinject_MT3DMS\ImportMt3dmsReinject.adv
DSP 3 ..\..\model\model.ImportMt3dmsReinject_MT3DMS\ImportMt3dmsReinject.dsp
SSM 4 ..\..\model\model.ImportMt3dmsReinject_MT3DMS\ImportMt3dmsReinject.ssm
GCG 9 ..\..\model\model.ImportMt3dmsReinject_MT3DMS\ImportMt3dmsReinject.gcg
