# Name File for MODFLOW created on 5/18/2019 by ModelMuse Version 3.10.0.60
LIST             11 ..\..\output\output.ImportMt3dmsZeroth\ImportMt3dmsZeroth.lst REPLACE
DATA(BINARY)      9 ..\..\output\output.ImportMt3dmsZeroth\ImportMt3dmsZeroth.cbc REPLACE
DIS              12 ..\..\model\model.ImportMt3dmsZeroth\ImportMt3dmsZeroth.dis OLD
BAS6             13 ..\..\model\model.ImportMt3dmsZeroth\ImportMt3dmsZeroth.bas OLD
OC               39 ..\..\model\model.ImportMt3dmsZeroth\ImportMt3dmsZeroth.oc OLD
DATA             37 ..\..\output\output.ImportMt3dmsZeroth\ImportMt3dmsZeroth.fhd REPLACE
DATA             38 ..\..\output\output.ImportMt3dmsZeroth\ImportMt3dmsZeroth.fdn REPLACE
SIP              35 ..\..\model\model.ImportMt3dmsZeroth\ImportMt3dmsZeroth.sip OLD
BCF6             64 ..\..\model\model.ImportMt3dmsZeroth\ImportMt3dmsZeroth.bcf OLD
LMT6            135 ..\..\model\model.ImportMt3dmsZeroth\ImportMt3dmsZeroth.lmt OLD
CHD              17 ..\..\model\model.ImportMt3dmsZeroth\ImportMt3dmsZeroth.chd OLD
