# Name File for MT3DMS created on 6/7/2012 by ModelMuse
LIST 16 ImportedP4.mls
FTL 10 ImportedP4.ftl
DATA 17 ImportedP4.cnf
BTN 1 ImportedP4.btn
DATA(BINARY) 201 ImportedP4_Comp1.ucn
DATA 601 ImportedP4_Comp1._mas
DATA 401 ImportedP4_Comp1.mto
ADV 2 ImportedP4.adv
DSP 3 ImportedP4.dsp
SSM 4 ImportedP4.ssm
GCG 9 ImportedP4.gcg
