# Name File for MT3DMS created on 10/11/2018 by ModelMuse
LIST 16 ..\..\output\output.ImportedP4_MT3DMS\ImportedP4.mls
FTL 10 ..\..\output\output.ImportedP4\ImportedP4.ftl
DATA 17 ..\..\output\output.ImportedP4_MT3DMS\ImportedP4.cnf
BTN 1 ..\..\model\model.ImportedP4_MT3DMS\ImportedP4.btn
DATA(BINARY) 201 ..\..\output\output.ImportedP4_MT3DMS\ImportedP4_Comp1.ucn
DATA 601 ..\..\output\output.ImportedP4_MT3DMS\ImportedP4_Comp1._mas
DATA 401 ..\..\output\output.ImportedP4_MT3DMS\ImportedP4_Comp1.mto
ADV 2 ..\..\model\model.ImportedP4_MT3DMS\ImportedP4.adv
DSP 3 ..\..\model\model.ImportedP4_MT3DMS\ImportedP4.dsp
SSM 4 ..\..\model\model.ImportedP4_MT3DMS\ImportedP4.ssm
GCG 9 ..\..\model\model.ImportedP4_MT3DMS\ImportedP4.gcg
