# Name File for MODFLOW created on 5/18/2019 by ModelMuse Version 3.10.0.60
LIST             11 ImportedP6.lst REPLACE
DATA(BINARY)      9 ImportedP6.cbc REPLACE
DIS              12 ImportedP6.dis OLD
BAS6             13 ImportedP6.bas OLD
OC               39 ImportedP6.oc OLD
DATA             37 ImportedP6.fhd REPLACE
DATA             38 ImportedP6.fdn REPLACE
SIP              35 ImportedP6.sip OLD
BCF6             64 ImportedP6.bcf OLD
LMT6            135 ImportedP6.lmt OLD
CHD              17 ImportedP6.chd OLD
WEL              20 ImportedP6.wel OLD
