# Discretization File created on 1/20/2023 by ModelMuse version 5.1.1.8.
# MODFLOW2005 Basic Package
# Upper left corner: (0, 0)
# Lower left corner: (0, -1828.8)
# Upper right corner: (1828.8, 0)
# Lower right corner: (1828.8, -1828.8)
# Grid angle (in degrees counterclockwise): 0
     2     6     6   350     4     2 # NLAY, NROW, NCOL, NPER, ITMUNI, LENUNI
     0     0 # LAYCB
INTERNAL 1.0 (FREE)       12 # DELR
  3.048000000000E+002   3.048000000000E+002   3.048000000000E+002   3.048000000000E+002   3.048000000000E+002   3.048000000000E+002 
INTERNAL 1.0 (FREE)       12 # DELC
  3.048000000000E+002   3.048000000000E+002   3.048000000000E+002   3.048000000000E+002   3.048000000000E+002   3.048000000000E+002 
INTERNAL 1.0 (FREE)       12 # TOP
  1.530000000000E+000   1.724000000000E+000   1.824000000000E+000   1.524000000000E+000   1.424000000000E+000   1.224000000000E+000 
  1.530000000000E+000   1.524000000000E+000   1.624000000000E+000   1.324000000000E+000   1.224000000000E+000   1.224000000000E+000 
  1.530000000000E+000   1.624000000000E+000   1.424000000000E+000   1.224000000000E+000   3.048000000000E-001   1.124000000000E+000 
  1.530000000000E+000   1.524000000000E+000   1.424000000000E+000   1.324000000000E+000   3.048000000000E-001   1.024000000000E+000 
  1.530000000000E+000   1.624000000000E+000   1.524000000000E+000   1.424000000000E+000   9.240000000000E-001   8.240000000000E-001 
  1.530000000000E+000   1.724000000000E+000   1.624000000000E+000   1.624000000000E+000   1.124000000000E+000   1.424000000000E+000 
CONSTANT     2.500000000000E-001  # BOTM, Layer 1
CONSTANT    -2.000000000000E+001  # BOTM, Layer 2
  1.000000000000E+000      6  1.000000000000E+000  TR # PERLEN NSTP TSMULT Ss/tr (Stress period 1) Time =  0.000000000000E+000  -  1.000000000000E+000 
  1.000000000000E+000      6  1.000000000000E+000  TR # PERLEN NSTP TSMULT Ss/tr (Stress period 2) Time =  1.000000000000E+000  -  2.000000000000E+000 
  1.000000000000E+000      6  1.000000000000E+000  TR # PERLEN NSTP TSMULT Ss/tr (Stress period 3) Time =  2.000000000000E+000  -  3.000000000000E+000 
  1.000000000000E+000      6  1.000000000000E+000  TR # PERLEN NSTP TSMULT Ss/tr (Stress period 4) Time =  3.000000000000E+000  -  4.000000000000E+000 
  1.000000000000E+000      6  1.000000000000E+000  TR # PERLEN NSTP TSMULT Ss/tr (Stress period 5) Time =  4.000000000000E+000  -  5.000000000000E+000 
  1.000000000000E+000      6  1.000000000000E+000  TR # PERLEN NSTP TSMULT Ss/tr (Stress period 6) Time =  5.000000000000E+000  -  6.000000000000E+000 
  1.000000000000E+000      6  1.000000000000E+000  TR # PERLEN NSTP TSMULT Ss/tr (Stress period 7) Time =  6.000000000000E+000  -  7.000000000000E+000 
  1.000000000000E+000      6  1.000000000000E+000  TR # PERLEN NSTP TSMULT Ss/tr (Stress period 8) Time =  7.000000000000E+000  -  8.000000000000E+000 
  1.000000000000E+000      6  1.000000000000E+000  TR # PERLEN NSTP TSMULT Ss/tr (Stress period 9) Time =  8.000000000000E+000  -  9.000000000000E+000 
  1.000000000000E+000      6  1.000000000000E+000  TR # PERLEN NSTP TSMULT Ss/tr (Stress period 10) Time =  9.000000000000E+000  -  1.000000000000E+001 
  1.000000000000E+000      6  1.000000000000E+000  TR # PERLEN NSTP TSMULT Ss/tr (Stress period 11) Time =  1.000000000000E+001  -  1.100000000000E+001 
  1.000000000000E+000      6  1.000000000000E+000  TR # PERLEN NSTP TSMULT Ss/tr (Stress period 12) Time =  1.100000000000E+001  -  1.200000000000E+001 
  1.000000000000E+000      6  1.000000000000E+000  TR # PERLEN NSTP TSMULT Ss/tr (Stress period 13) Time =  1.200000000000E+001  -  1.300000000000E+001 
  1.000000000000E+000      6  1.000000000000E+000  TR # PERLEN NSTP TSMULT Ss/tr (Stress period 14) Time =  1.300000000000E+001  -  1.400000000000E+001 
  1.000000000000E+000      6  1.000000000000E+000  TR # PERLEN NSTP TSMULT Ss/tr (Stress period 15) Time =  1.400000000000E+001  -  1.500000000000E+001 
  1.000000000000E+000      6  1.000000000000E+000  TR # PERLEN NSTP TSMULT Ss/tr (Stress period 16) Time =  1.500000000000E+001  -  1.600000000000E+001 
  1.000000000000E+000      6  1.000000000000E+000  TR # PERLEN NSTP TSMULT Ss/tr (Stress period 17) Time =  1.600000000000E+001  -  1.700000000000E+001 
  1.000000000000E+000      6  1.000000000000E+000  TR # PERLEN NSTP TSMULT Ss/tr (Stress period 18) Time =  1.700000000000E+001  -  1.800000000000E+001 
  1.000000000000E+000      6  1.000000000000E+000  TR # PERLEN NSTP TSMULT Ss/tr (Stress period 19) Time =  1.800000000000E+001  -  1.900000000000E+001 
  1.000000000000E+000      6  1.000000000000E+000  TR # PERLEN NSTP TSMULT Ss/tr (Stress period 20) Time =  1.900000000000E+001  -  2.000000000000E+001 
  1.000000000000E+000      6  1.000000000000E+000  TR # PERLEN NSTP TSMULT Ss/tr (Stress period 21) Time =  2.000000000000E+001  -  2.100000000000E+001 
  1.000000000000E+000      6  1.000000000000E+000  TR # PERLEN NSTP TSMULT Ss/tr (Stress period 22) Time =  2.100000000000E+001  -  2.200000000000E+001 
  1.000000000000E+000      6  1.000000000000E+000  TR # PERLEN NSTP TSMULT Ss/tr (Stress period 23) Time =  2.200000000000E+001  -  2.300000000000E+001 
  1.000000000000E+000      6  1.000000000000E+000  TR # PERLEN NSTP TSMULT Ss/tr (Stress period 24) Time =  2.300000000000E+001  -  2.400000000000E+001 
  1.000000000000E+000      6  1.000000000000E+000  TR # PERLEN NSTP TSMULT Ss/tr (Stress period 25) Time =  2.400000000000E+001  -  2.500000000000E+001 
  1.000000000000E+000      6  1.000000000000E+000  TR # PERLEN NSTP TSMULT Ss/tr (Stress period 26) Time =  2.500000000000E+001  -  2.600000000000E+001 
  1.000000000000E+000      6  1.000000000000E+000  TR # PERLEN NSTP TSMULT Ss/tr (Stress period 27) Time =  2.600000000000E+001  -  2.700000000000E+001 
  1.000000000000E+000      6  1.000000000000E+000  TR # PERLEN NSTP TSMULT Ss/tr (Stress period 28) Time =  2.700000000000E+001  -  2.800000000000E+001 
  1.000000000000E+000      6  1.000000000000E+000  TR # PERLEN NSTP TSMULT Ss/tr (Stress period 29) Time =  2.800000000000E+001  -  2.900000000000E+001 
  1.000000000000E+000      6  1.000000000000E+000  TR # PERLEN NSTP TSMULT Ss/tr (Stress period 30) Time =  2.900000000000E+001  -  3.000000000000E+001 
  1.000000000000E+000      6  1.000000000000E+000  TR # PERLEN NSTP TSMULT Ss/tr (Stress period 31) Time =  3.000000000000E+001  -  3.100000000000E+001 
  1.000000000000E+000      6  1.000000000000E+000  TR # PERLEN NSTP TSMULT Ss/tr (Stress period 32) Time =  3.100000000000E+001  -  3.200000000000E+001 
  1.000000000000E+000      6  1.000000000000E+000  TR # PERLEN NSTP TSMULT Ss/tr (Stress period 33) Time =  3.200000000000E+001  -  3.300000000000E+001 
  1.000000000000E+000      6  1.000000000000E+000  TR # PERLEN NSTP TSMULT Ss/tr (Stress period 34) Time =  3.300000000000E+001  -  3.400000000000E+001 
  1.000000000000E+000      6  1.000000000000E+000  TR # PERLEN NSTP TSMULT Ss/tr (Stress period 35) Time =  3.400000000000E+001  -  3.500000000000E+001 
  1.000000000000E+000      6  1.000000000000E+000  TR # PERLEN NSTP TSMULT Ss/tr (Stress period 36) Time =  3.500000000000E+001  -  3.600000000000E+001 
  1.000000000000E+000      6  1.000000000000E+000  TR # PERLEN NSTP TSMULT Ss/tr (Stress period 37) Time =  3.600000000000E+001  -  3.700000000000E+001 
  1.000000000000E+000      6  1.000000000000E+000  TR # PERLEN NSTP TSMULT Ss/tr (Stress period 38) Time =  3.700000000000E+001  -  3.800000000000E+001 
  1.000000000000E+000      6  1.000000000000E+000  TR # PERLEN NSTP TSMULT Ss/tr (Stress period 39) Time =  3.800000000000E+001  -  3.900000000000E+001 
  1.000000000000E+000      6  1.000000000000E+000  TR # PERLEN NSTP TSMULT Ss/tr (Stress period 40) Time =  3.900000000000E+001  -  4.000000000000E+001 
  1.000000000000E+000      6  1.000000000000E+000  TR # PERLEN NSTP TSMULT Ss/tr (Stress period 41) Time =  4.000000000000E+001  -  4.100000000000E+001 
  1.000000000000E+000      6  1.000000000000E+000  TR # PERLEN NSTP TSMULT Ss/tr (Stress period 42) Time =  4.100000000000E+001  -  4.200000000000E+001 
  1.000000000000E+000      6  1.000000000000E+000  TR # PERLEN NSTP TSMULT Ss/tr (Stress period 43) Time =  4.200000000000E+001  -  4.300000000000E+001 
  1.000000000000E+000      6  1.000000000000E+000  TR # PERLEN NSTP TSMULT Ss/tr (Stress period 44) Time =  4.300000000000E+001  -  4.400000000000E+001 
  1.000000000000E+000      6  1.000000000000E+000  TR # PERLEN NSTP TSMULT Ss/tr (Stress period 45) Time =  4.400000000000E+001  -  4.500000000000E+001 
  1.000000000000E+000      6  1.000000000000E+000  TR # PERLEN NSTP TSMULT Ss/tr (Stress period 46) Time =  4.500000000000E+001  -  4.600000000000E+001 
  1.000000000000E+000      6  1.000000000000E+000  TR # PERLEN NSTP TSMULT Ss/tr (Stress period 47) Time =  4.600000000000E+001  -  4.700000000000E+001 
  1.000000000000E+000      6  1.000000000000E+000  TR # PERLEN NSTP TSMULT Ss/tr (Stress period 48) Time =  4.700000000000E+001  -  4.800000000000E+001 
  1.000000000000E+000      6  1.000000000000E+000  TR # PERLEN NSTP TSMULT Ss/tr (Stress period 49) Time =  4.800000000000E+001  -  4.900000000000E+001 
  1.000000000000E+000      6  1.000000000000E+000  TR # PERLEN NSTP TSMULT Ss/tr (Stress period 50) Time =  4.900000000000E+001  -  5.000000000000E+001 
  1.000000000000E+000      6  1.000000000000E+000  TR # PERLEN NSTP TSMULT Ss/tr (Stress period 51) Time =  5.000000000000E+001  -  5.100000000000E+001 
  1.000000000000E+000      6  1.000000000000E+000  TR # PERLEN NSTP TSMULT Ss/tr (Stress period 52) Time =  5.100000000000E+001  -  5.200000000000E+001 
  1.000000000000E+000      6  1.000000000000E+000  TR # PERLEN NSTP TSMULT Ss/tr (Stress period 53) Time =  5.200000000000E+001  -  5.300000000000E+001 
  1.000000000000E+000      6  1.000000000000E+000  TR # PERLEN NSTP TSMULT Ss/tr (Stress period 54) Time =  5.300000000000E+001  -  5.400000000000E+001 
  1.000000000000E+000      6  1.000000000000E+000  TR # PERLEN NSTP TSMULT Ss/tr (Stress period 55) Time =  5.400000000000E+001  -  5.500000000000E+001 
  1.000000000000E+000      6  1.000000000000E+000  TR # PERLEN NSTP TSMULT Ss/tr (Stress period 56) Time =  5.500000000000E+001  -  5.600000000000E+001 
  1.000000000000E+000      6  1.000000000000E+000  TR # PERLEN NSTP TSMULT Ss/tr (Stress period 57) Time =  5.600000000000E+001  -  5.700000000000E+001 
  1.000000000000E+000      6  1.000000000000E+000  TR # PERLEN NSTP TSMULT Ss/tr (Stress period 58) Time =  5.700000000000E+001  -  5.800000000000E+001 
  1.000000000000E+000      6  1.000000000000E+000  TR # PERLEN NSTP TSMULT Ss/tr (Stress period 59) Time =  5.800000000000E+001  -  5.900000000000E+001 
  1.000000000000E+000      6  1.000000000000E+000  TR # PERLEN NSTP TSMULT Ss/tr (Stress period 60) Time =  5.900000000000E+001  -  6.000000000000E+001 
  1.000000000000E+000      6  1.000000000000E+000  TR # PERLEN NSTP TSMULT Ss/tr (Stress period 61) Time =  6.000000000000E+001  -  6.100000000000E+001 
  1.000000000000E+000      6  1.000000000000E+000  TR # PERLEN NSTP TSMULT Ss/tr (Stress period 62) Time =  6.100000000000E+001  -  6.200000000000E+001 
  1.000000000000E+000      6  1.000000000000E+000  TR # PERLEN NSTP TSMULT Ss/tr (Stress period 63) Time =  6.200000000000E+001  -  6.300000000000E+001 
  1.000000000000E+000      6  1.000000000000E+000  TR # PERLEN NSTP TSMULT Ss/tr (Stress period 64) Time =  6.300000000000E+001  -  6.400000000000E+001 
  1.000000000000E+000      6  1.000000000000E+000  TR # PERLEN NSTP TSMULT Ss/tr (Stress period 65) Time =  6.400000000000E+001  -  6.500000000000E+001 
  1.000000000000E+000      6  1.000000000000E+000  TR # PERLEN NSTP TSMULT Ss/tr (Stress period 66) Time =  6.500000000000E+001  -  6.600000000000E+001 
  1.000000000000E+000      6  1.000000000000E+000  TR # PERLEN NSTP TSMULT Ss/tr (Stress period 67) Time =  6.600000000000E+001  -  6.700000000000E+001 
  1.000000000000E+000      6  1.000000000000E+000  TR # PERLEN NSTP TSMULT Ss/tr (Stress period 68) Time =  6.700000000000E+001  -  6.800000000000E+001 
  1.000000000000E+000      6  1.000000000000E+000  TR # PERLEN NSTP TSMULT Ss/tr (Stress period 69) Time =  6.800000000000E+001  -  6.900000000000E+001 
  1.000000000000E+000      6  1.000000000000E+000  TR # PERLEN NSTP TSMULT Ss/tr (Stress period 70) Time =  6.900000000000E+001  -  7.000000000000E+001 
  1.000000000000E+000      6  1.000000000000E+000  TR # PERLEN NSTP TSMULT Ss/tr (Stress period 71) Time =  7.000000000000E+001  -  7.100000000000E+001 
  1.000000000000E+000      6  1.000000000000E+000  TR # PERLEN NSTP TSMULT Ss/tr (Stress period 72) Time =  7.100000000000E+001  -  7.200000000000E+001 
  1.000000000000E+000      6  1.000000000000E+000  TR # PERLEN NSTP TSMULT Ss/tr (Stress period 73) Time =  7.200000000000E+001  -  7.300000000000E+001 
  1.000000000000E+000      6  1.000000000000E+000  TR # PERLEN NSTP TSMULT Ss/tr (Stress period 74) Time =  7.300000000000E+001  -  7.400000000000E+001 
  1.000000000000E+000      6  1.000000000000E+000  TR # PERLEN NSTP TSMULT Ss/tr (Stress period 75) Time =  7.400000000000E+001  -  7.500000000000E+001 
  1.000000000000E+000      6  1.000000000000E+000  TR # PERLEN NSTP TSMULT Ss/tr (Stress period 76) Time =  7.500000000000E+001  -  7.600000000000E+001 
  1.000000000000E+000      6  1.000000000000E+000  TR # PERLEN NSTP TSMULT Ss/tr (Stress period 77) Time =  7.600000000000E+001  -  7.700000000000E+001 
  1.000000000000E+000      6  1.000000000000E+000  TR # PERLEN NSTP TSMULT Ss/tr (Stress period 78) Time =  7.700000000000E+001  -  7.800000000000E+001 
  1.000000000000E+000      6  1.000000000000E+000  TR # PERLEN NSTP TSMULT Ss/tr (Stress period 79) Time =  7.800000000000E+001  -  7.900000000000E+001 
  1.000000000000E+000      6  1.000000000000E+000  TR # PERLEN NSTP TSMULT Ss/tr (Stress period 80) Time =  7.900000000000E+001  -  8.000000000000E+001 
  1.000000000000E+000      6  1.000000000000E+000  TR # PERLEN NSTP TSMULT Ss/tr (Stress period 81) Time =  8.000000000000E+001  -  8.100000000000E+001 
  1.000000000000E+000      6  1.000000000000E+000  TR # PERLEN NSTP TSMULT Ss/tr (Stress period 82) Time =  8.100000000000E+001  -  8.200000000000E+001 
  1.000000000000E+000      6  1.000000000000E+000  TR # PERLEN NSTP TSMULT Ss/tr (Stress period 83) Time =  8.200000000000E+001  -  8.300000000000E+001 
  1.000000000000E+000      6  1.000000000000E+000  TR # PERLEN NSTP TSMULT Ss/tr (Stress period 84) Time =  8.300000000000E+001  -  8.400000000000E+001 
  1.000000000000E+000      6  1.000000000000E+000  TR # PERLEN NSTP TSMULT Ss/tr (Stress period 85) Time =  8.400000000000E+001  -  8.500000000000E+001 
  1.000000000000E+000      6  1.000000000000E+000  TR # PERLEN NSTP TSMULT Ss/tr (Stress period 86) Time =  8.500000000000E+001  -  8.600000000000E+001 
  1.000000000000E+000      6  1.000000000000E+000  TR # PERLEN NSTP TSMULT Ss/tr (Stress period 87) Time =  8.600000000000E+001  -  8.700000000000E+001 
  1.000000000000E+000      6  1.000000000000E+000  TR # PERLEN NSTP TSMULT Ss/tr (Stress period 88) Time =  8.700000000000E+001  -  8.800000000000E+001 
  1.000000000000E+000      6  1.000000000000E+000  TR # PERLEN NSTP TSMULT Ss/tr (Stress period 89) Time =  8.800000000000E+001  -  8.900000000000E+001 
  1.000000000000E+000      6  1.000000000000E+000  TR # PERLEN NSTP TSMULT Ss/tr (Stress period 90) Time =  8.900000000000E+001  -  9.000000000000E+001 
  1.000000000000E+000      6  1.000000000000E+000  TR # PERLEN NSTP TSMULT Ss/tr (Stress period 91) Time =  9.000000000000E+001  -  9.100000000000E+001 
  1.000000000000E+000      6  1.000000000000E+000  TR # PERLEN NSTP TSMULT Ss/tr (Stress period 92) Time =  9.100000000000E+001  -  9.200000000000E+001 
  1.000000000000E+000      6  1.000000000000E+000  TR # PERLEN NSTP TSMULT Ss/tr (Stress period 93) Time =  9.200000000000E+001  -  9.300000000000E+001 
  1.000000000000E+000      6  1.000000000000E+000  TR # PERLEN NSTP TSMULT Ss/tr (Stress period 94) Time =  9.300000000000E+001  -  9.400000000000E+001 
  1.000000000000E+000      6  1.000000000000E+000  TR # PERLEN NSTP TSMULT Ss/tr (Stress period 95) Time =  9.400000000000E+001  -  9.500000000000E+001 
  1.000000000000E+000      6  1.000000000000E+000  TR # PERLEN NSTP TSMULT Ss/tr (Stress period 96) Time =  9.500000000000E+001  -  9.600000000000E+001 
  1.000000000000E+000      6  1.000000000000E+000  TR # PERLEN NSTP TSMULT Ss/tr (Stress period 97) Time =  9.600000000000E+001  -  9.700000000000E+001 
  1.000000000000E+000      6  1.000000000000E+000  TR # PERLEN NSTP TSMULT Ss/tr (Stress period 98) Time =  9.700000000000E+001  -  9.800000000000E+001 
  1.000000000000E+000      6  1.000000000000E+000  TR # PERLEN NSTP TSMULT Ss/tr (Stress period 99) Time =  9.800000000000E+001  -  9.900000000000E+001 
  1.000000000000E+000      6  1.000000000000E+000  TR # PERLEN NSTP TSMULT Ss/tr (Stress period 100) Time =  9.900000000000E+001  -  1.000000000000E+002 
  1.000000000000E+000      6  1.000000000000E+000  TR # PERLEN NSTP TSMULT Ss/tr (Stress period 101) Time =  1.000000000000E+002  -  1.010000000000E+002 
  1.000000000000E+000      6  1.000000000000E+000  TR # PERLEN NSTP TSMULT Ss/tr (Stress period 102) Time =  1.010000000000E+002  -  1.020000000000E+002 
  1.000000000000E+000      6  1.000000000000E+000  TR # PERLEN NSTP TSMULT Ss/tr (Stress period 103) Time =  1.020000000000E+002  -  1.030000000000E+002 
  1.000000000000E+000      6  1.000000000000E+000  TR # PERLEN NSTP TSMULT Ss/tr (Stress period 104) Time =  1.030000000000E+002  -  1.040000000000E+002 
  1.000000000000E+000      6  1.000000000000E+000  TR # PERLEN NSTP TSMULT Ss/tr (Stress period 105) Time =  1.040000000000E+002  -  1.050000000000E+002 
  1.000000000000E+000      6  1.000000000000E+000  TR # PERLEN NSTP TSMULT Ss/tr (Stress period 106) Time =  1.050000000000E+002  -  1.060000000000E+002 
  1.000000000000E+000      6  1.000000000000E+000  TR # PERLEN NSTP TSMULT Ss/tr (Stress period 107) Time =  1.060000000000E+002  -  1.070000000000E+002 
  1.000000000000E+000      6  1.000000000000E+000  TR # PERLEN NSTP TSMULT Ss/tr (Stress period 108) Time =  1.070000000000E+002  -  1.080000000000E+002 
  1.000000000000E+000      6  1.000000000000E+000  TR # PERLEN NSTP TSMULT Ss/tr (Stress period 109) Time =  1.080000000000E+002  -  1.090000000000E+002 
  1.000000000000E+000      6  1.000000000000E+000  TR # PERLEN NSTP TSMULT Ss/tr (Stress period 110) Time =  1.090000000000E+002  -  1.100000000000E+002 
  1.000000000000E+000      6  1.000000000000E+000  TR # PERLEN NSTP TSMULT Ss/tr (Stress period 111) Time =  1.100000000000E+002  -  1.110000000000E+002 
  1.000000000000E+000      6  1.000000000000E+000  TR # PERLEN NSTP TSMULT Ss/tr (Stress period 112) Time =  1.110000000000E+002  -  1.120000000000E+002 
  1.000000000000E+000      6  1.000000000000E+000  TR # PERLEN NSTP TSMULT Ss/tr (Stress period 113) Time =  1.120000000000E+002  -  1.130000000000E+002 
  1.000000000000E+000      6  1.000000000000E+000  TR # PERLEN NSTP TSMULT Ss/tr (Stress period 114) Time =  1.130000000000E+002  -  1.140000000000E+002 
  1.000000000000E+000      6  1.000000000000E+000  TR # PERLEN NSTP TSMULT Ss/tr (Stress period 115) Time =  1.140000000000E+002  -  1.150000000000E+002 
  1.000000000000E+000      6  1.000000000000E+000  TR # PERLEN NSTP TSMULT Ss/tr (Stress period 116) Time =  1.150000000000E+002  -  1.160000000000E+002 
  1.000000000000E+000      6  1.000000000000E+000  TR # PERLEN NSTP TSMULT Ss/tr (Stress period 117) Time =  1.160000000000E+002  -  1.170000000000E+002 
  1.000000000000E+000      6  1.000000000000E+000  TR # PERLEN NSTP TSMULT Ss/tr (Stress period 118) Time =  1.170000000000E+002  -  1.180000000000E+002 
  1.000000000000E+000      6  1.000000000000E+000  TR # PERLEN NSTP TSMULT Ss/tr (Stress period 119) Time =  1.180000000000E+002  -  1.190000000000E+002 
  1.000000000000E+000      6  1.000000000000E+000  TR # PERLEN NSTP TSMULT Ss/tr (Stress period 120) Time =  1.190000000000E+002  -  1.200000000000E+002 
  1.000000000000E+000      6  1.000000000000E+000  TR # PERLEN NSTP TSMULT Ss/tr (Stress period 121) Time =  1.200000000000E+002  -  1.210000000000E+002 
  1.000000000000E+000      6  1.000000000000E+000  TR # PERLEN NSTP TSMULT Ss/tr (Stress period 122) Time =  1.210000000000E+002  -  1.220000000000E+002 
  1.000000000000E+000      6  1.000000000000E+000  TR # PERLEN NSTP TSMULT Ss/tr (Stress period 123) Time =  1.220000000000E+002  -  1.230000000000E+002 
  1.000000000000E+000      6  1.000000000000E+000  TR # PERLEN NSTP TSMULT Ss/tr (Stress period 124) Time =  1.230000000000E+002  -  1.240000000000E+002 
  1.000000000000E+000      6  1.000000000000E+000  TR # PERLEN NSTP TSMULT Ss/tr (Stress period 125) Time =  1.240000000000E+002  -  1.250000000000E+002 
  1.000000000000E+000      6  1.000000000000E+000  TR # PERLEN NSTP TSMULT Ss/tr (Stress period 126) Time =  1.250000000000E+002  -  1.260000000000E+002 
  1.000000000000E+000      6  1.000000000000E+000  TR # PERLEN NSTP TSMULT Ss/tr (Stress period 127) Time =  1.260000000000E+002  -  1.270000000000E+002 
  1.000000000000E+000      6  1.000000000000E+000  TR # PERLEN NSTP TSMULT Ss/tr (Stress period 128) Time =  1.270000000000E+002  -  1.280000000000E+002 
  1.000000000000E+000      6  1.000000000000E+000  TR # PERLEN NSTP TSMULT Ss/tr (Stress period 129) Time =  1.280000000000E+002  -  1.290000000000E+002 
  1.000000000000E+000      6  1.000000000000E+000  TR # PERLEN NSTP TSMULT Ss/tr (Stress period 130) Time =  1.290000000000E+002  -  1.300000000000E+002 
  1.000000000000E+000      6  1.000000000000E+000  TR # PERLEN NSTP TSMULT Ss/tr (Stress period 131) Time =  1.300000000000E+002  -  1.310000000000E+002 
  1.000000000000E+000      6  1.000000000000E+000  TR # PERLEN NSTP TSMULT Ss/tr (Stress period 132) Time =  1.310000000000E+002  -  1.320000000000E+002 
  1.000000000000E+000      6  1.000000000000E+000  TR # PERLEN NSTP TSMULT Ss/tr (Stress period 133) Time =  1.320000000000E+002  -  1.330000000000E+002 
  1.000000000000E+000      6  1.000000000000E+000  TR # PERLEN NSTP TSMULT Ss/tr (Stress period 134) Time =  1.330000000000E+002  -  1.340000000000E+002 
  1.000000000000E+000      6  1.000000000000E+000  TR # PERLEN NSTP TSMULT Ss/tr (Stress period 135) Time =  1.340000000000E+002  -  1.350000000000E+002 
  1.000000000000E+000      6  1.000000000000E+000  TR # PERLEN NSTP TSMULT Ss/tr (Stress period 136) Time =  1.350000000000E+002  -  1.360000000000E+002 
  1.000000000000E+000      6  1.000000000000E+000  TR # PERLEN NSTP TSMULT Ss/tr (Stress period 137) Time =  1.360000000000E+002  -  1.370000000000E+002 
  1.000000000000E+000      6  1.000000000000E+000  TR # PERLEN NSTP TSMULT Ss/tr (Stress period 138) Time =  1.370000000000E+002  -  1.380000000000E+002 
  1.000000000000E+000      6  1.000000000000E+000  TR # PERLEN NSTP TSMULT Ss/tr (Stress period 139) Time =  1.380000000000E+002  -  1.390000000000E+002 
  1.000000000000E+000      6  1.000000000000E+000  TR # PERLEN NSTP TSMULT Ss/tr (Stress period 140) Time =  1.390000000000E+002  -  1.400000000000E+002 
  1.000000000000E+000      6  1.000000000000E+000  TR # PERLEN NSTP TSMULT Ss/tr (Stress period 141) Time =  1.400000000000E+002  -  1.410000000000E+002 
  1.000000000000E+000      6  1.000000000000E+000  TR # PERLEN NSTP TSMULT Ss/tr (Stress period 142) Time =  1.410000000000E+002  -  1.420000000000E+002 
  1.000000000000E+000      6  1.000000000000E+000  TR # PERLEN NSTP TSMULT Ss/tr (Stress period 143) Time =  1.420000000000E+002  -  1.430000000000E+002 
  1.000000000000E+000      6  1.000000000000E+000  TR # PERLEN NSTP TSMULT Ss/tr (Stress period 144) Time =  1.430000000000E+002  -  1.440000000000E+002 
  1.000000000000E+000      6  1.000000000000E+000  TR # PERLEN NSTP TSMULT Ss/tr (Stress period 145) Time =  1.440000000000E+002  -  1.450000000000E+002 
  1.000000000000E+000      6  1.000000000000E+000  TR # PERLEN NSTP TSMULT Ss/tr (Stress period 146) Time =  1.450000000000E+002  -  1.460000000000E+002 
  1.000000000000E+000      6  1.000000000000E+000  TR # PERLEN NSTP TSMULT Ss/tr (Stress period 147) Time =  1.460000000000E+002  -  1.470000000000E+002 
  1.000000000000E+000      6  1.000000000000E+000  TR # PERLEN NSTP TSMULT Ss/tr (Stress period 148) Time =  1.470000000000E+002  -  1.480000000000E+002 
  1.000000000000E+000      6  1.000000000000E+000  TR # PERLEN NSTP TSMULT Ss/tr (Stress period 149) Time =  1.480000000000E+002  -  1.490000000000E+002 
  1.000000000000E+000      6  1.000000000000E+000  TR # PERLEN NSTP TSMULT Ss/tr (Stress period 150) Time =  1.490000000000E+002  -  1.500000000000E+002 
  1.000000000000E+000      6  1.000000000000E+000  TR # PERLEN NSTP TSMULT Ss/tr (Stress period 151) Time =  1.500000000000E+002  -  1.510000000000E+002 
  1.000000000000E+000      6  1.000000000000E+000  TR # PERLEN NSTP TSMULT Ss/tr (Stress period 152) Time =  1.510000000000E+002  -  1.520000000000E+002 
  1.000000000000E+000      6  1.000000000000E+000  TR # PERLEN NSTP TSMULT Ss/tr (Stress period 153) Time =  1.520000000000E+002  -  1.530000000000E+002 
  1.000000000000E+000      6  1.000000000000E+000  TR # PERLEN NSTP TSMULT Ss/tr (Stress period 154) Time =  1.530000000000E+002  -  1.540000000000E+002 
  1.000000000000E+000      6  1.000000000000E+000  TR # PERLEN NSTP TSMULT Ss/tr (Stress period 155) Time =  1.540000000000E+002  -  1.550000000000E+002 
  1.000000000000E+000      6  1.000000000000E+000  TR # PERLEN NSTP TSMULT Ss/tr (Stress period 156) Time =  1.550000000000E+002  -  1.560000000000E+002 
  1.000000000000E+000      6  1.000000000000E+000  TR # PERLEN NSTP TSMULT Ss/tr (Stress period 157) Time =  1.560000000000E+002  -  1.570000000000E+002 
  1.000000000000E+000      6  1.000000000000E+000  TR # PERLEN NSTP TSMULT Ss/tr (Stress period 158) Time =  1.570000000000E+002  -  1.580000000000E+002 
  1.000000000000E+000      6  1.000000000000E+000  TR # PERLEN NSTP TSMULT Ss/tr (Stress period 159) Time =  1.580000000000E+002  -  1.590000000000E+002 
  1.000000000000E+000      6  1.000000000000E+000  TR # PERLEN NSTP TSMULT Ss/tr (Stress period 160) Time =  1.590000000000E+002  -  1.600000000000E+002 
  1.000000000000E+000      6  1.000000000000E+000  TR # PERLEN NSTP TSMULT Ss/tr (Stress period 161) Time =  1.600000000000E+002  -  1.610000000000E+002 
  1.000000000000E+000      6  1.000000000000E+000  TR # PERLEN NSTP TSMULT Ss/tr (Stress period 162) Time =  1.610000000000E+002  -  1.620000000000E+002 
  1.000000000000E+000      6  1.000000000000E+000  TR # PERLEN NSTP TSMULT Ss/tr (Stress period 163) Time =  1.620000000000E+002  -  1.630000000000E+002 
  1.000000000000E+000      6  1.000000000000E+000  TR # PERLEN NSTP TSMULT Ss/tr (Stress period 164) Time =  1.630000000000E+002  -  1.640000000000E+002 
  1.000000000000E+000      6  1.000000000000E+000  TR # PERLEN NSTP TSMULT Ss/tr (Stress period 165) Time =  1.640000000000E+002  -  1.650000000000E+002 
  1.000000000000E+000      6  1.000000000000E+000  TR # PERLEN NSTP TSMULT Ss/tr (Stress period 166) Time =  1.650000000000E+002  -  1.660000000000E+002 
  1.000000000000E+000      6  1.000000000000E+000  TR # PERLEN NSTP TSMULT Ss/tr (Stress period 167) Time =  1.660000000000E+002  -  1.670000000000E+002 
  1.000000000000E+000      6  1.000000000000E+000  TR # PERLEN NSTP TSMULT Ss/tr (Stress period 168) Time =  1.670000000000E+002  -  1.680000000000E+002 
  1.000000000000E+000      6  1.000000000000E+000  TR # PERLEN NSTP TSMULT Ss/tr (Stress period 169) Time =  1.680000000000E+002  -  1.690000000000E+002 
  1.000000000000E+000      6  1.000000000000E+000  TR # PERLEN NSTP TSMULT Ss/tr (Stress period 170) Time =  1.690000000000E+002  -  1.700000000000E+002 
  1.000000000000E+000      6  1.000000000000E+000  TR # PERLEN NSTP TSMULT Ss/tr (Stress period 171) Time =  1.700000000000E+002  -  1.710000000000E+002 
  1.000000000000E+000      6  1.000000000000E+000  TR # PERLEN NSTP TSMULT Ss/tr (Stress period 172) Time =  1.710000000000E+002  -  1.720000000000E+002 
  1.000000000000E+000      6  1.000000000000E+000  TR # PERLEN NSTP TSMULT Ss/tr (Stress period 173) Time =  1.720000000000E+002  -  1.730000000000E+002 
  1.000000000000E+000      6  1.000000000000E+000  TR # PERLEN NSTP TSMULT Ss/tr (Stress period 174) Time =  1.730000000000E+002  -  1.740000000000E+002 
  1.000000000000E+000      6  1.000000000000E+000  TR # PERLEN NSTP TSMULT Ss/tr (Stress period 175) Time =  1.740000000000E+002  -  1.750000000000E+002 
  1.000000000000E+000      6  1.000000000000E+000  TR # PERLEN NSTP TSMULT Ss/tr (Stress period 176) Time =  1.750000000000E+002  -  1.760000000000E+002 
  1.000000000000E+000      6  1.000000000000E+000  TR # PERLEN NSTP TSMULT Ss/tr (Stress period 177) Time =  1.760000000000E+002  -  1.770000000000E+002 
  1.000000000000E+000      6  1.000000000000E+000  TR # PERLEN NSTP TSMULT Ss/tr (Stress period 178) Time =  1.770000000000E+002  -  1.780000000000E+002 
  1.000000000000E+000      6  1.000000000000E+000  TR # PERLEN NSTP TSMULT Ss/tr (Stress period 179) Time =  1.780000000000E+002  -  1.790000000000E+002 
  1.000000000000E+000      6  1.000000000000E+000  TR # PERLEN NSTP TSMULT Ss/tr (Stress period 180) Time =  1.790000000000E+002  -  1.800000000000E+002 
  1.000000000000E+000      6  1.000000000000E+000  TR # PERLEN NSTP TSMULT Ss/tr (Stress period 181) Time =  1.800000000000E+002  -  1.810000000000E+002 
  1.000000000000E+000      6  1.000000000000E+000  TR # PERLEN NSTP TSMULT Ss/tr (Stress period 182) Time =  1.810000000000E+002  -  1.820000000000E+002 
  1.000000000000E+000      6  1.000000000000E+000  TR # PERLEN NSTP TSMULT Ss/tr (Stress period 183) Time =  1.820000000000E+002  -  1.830000000000E+002 
  1.000000000000E+000      6  1.000000000000E+000  TR # PERLEN NSTP TSMULT Ss/tr (Stress period 184) Time =  1.830000000000E+002  -  1.840000000000E+002 