# Name File for MODFLOW created on 11/16/2019 by ModelMuse Version 4.1.0.9
LIST             11 importedSWR.lst REPLACE
DATA(BINARY)      9 importedSWR.cbc REPLACE
DIS              12 importedSWR.dis OLD
BAS6             13 importedSWR.bas OLD
OC               39 importedSWR.oc OLD
DATA             37 importedSWR.fhd REPLACE
DATA             38 importedSWR.fdn REPLACE
NWT             133 importedSWR.nwt OLD
UPW             134 importedSWR.upw OLD
GHB              19 importedSWR.ghb OLD
SWR             171 importedSWR.swr OLD
DATA(BINARY)    172 importedSWR.Swr_ReachGroupFlows_B REPLACE
DATA            173 importedSWR.Swr_ReachStage_A REPLACE
DATA(BINARY)    174 importedSWR.Swr_ReachExchange_B REPLACE
DATA            181 importedSWR.Swr_Convergence REPLACE
DATA            178 importedSWR.Swr_RIV REPLACE
DATA            179 importedSWR.Swr_Obs_A REPLACE
DATA          20205 ..\..\..\WRDAPP\MODFLOW-NWT_1.0.9\data\SWR_data_files\SWRSample05\ref\ConstantStage.dat OLD
UZF              31 importedSWR.uzf OLD
