# MT3DMS Benchmark Problem #8
# Sudicky 1989 Waterloo test problem
# Basic Package file created on 12/12/2015 by ModelMuse version 3.6.3.5.
FREE XSECTION  # OPTIONS
INTERNAL 1 (FREE)        5 # IBOUND
     1     1     1     1     1     1     1     1     1     1
     1     1     1     1     1     1     1     1     1     1
     1     1     1     1     1     1     1     1     1     1
     1     1     1     1     1     1     1     1     1     1
     1     1     1     1     1     1     1     1     1     1
     1     1     1     1     1     1     1     1     1     1
     1     1     1     1     1     1     1     1     1     1
     1     1     1     1     1     1     1     1     1     1
     1     1     1     1     1     1     1     1     1     1
     1     1     1     1     1     1     1     1     1     1
     1     1     1     1     1     1     1     1     1     1
     1     1     1     1     1     1     1     1     1     1
     1     1     1     1     1     1     1     1     1     1
     1     1     1     1     1     1     1     1     1     1
     1     1     1     1     1     1     1     1     1     1
     1     1     1     1     1     1     1     1     1     1
     1     1     1     1     1     1     1     1     1     1
     1     1     1     1     1     1     1     1     1     1
     1     1     1     1     1     1     1     1     1     1
     1     1     1     1     1     1     1     1     1     1
     1     1     1     1     1     1     1     1     1     1
     1     1     1     1     1     1     1     1     1     1
     1     1     1     1     1     1     1     1     1     1
     1     1     1     1     1     1     1     1     1     1
     1     1     1     1     1     1     1     1     1     1
     1     1     1     1     1     1     1     1     1     1
     1     1     1     1     1     1     1     1     1     1
     1     1     1     1     1     1     1     1     1     1
     1     1     1     1     1     1     1     1     1     1
     1     1     1     1     1     1     1     1     1     1
     1     1     1     1     1     1     1     1     1     1
     1     1     1     1     1     1     1     1     1     1
     1     1     1     1     1     1     1     1     1     1
     1     1     1     1     1     1     1     1     1     1
     1     1     1     1     1     1     1     1     1     1
     1     1     1     1     1     1     1     1     1     1
     1     1     1     1     1     1     1     1     1     1
     1     1     1     1     1     1     1     1     1     1
     1     1     1     1     1     1     1     1     1     1
     1     1     1     1     1     1     1     1     1     1
     1     1     1     1     1     1     1     1     1     1
     1     1     1     1     1     1     1     1     1     1
     1     1     1     1     1     1     1     1     1     1
     1     1     1     1     1     1     1     1     1     1
     1     1     1     1     1     1     1     1     1     1
     1     1     1     1     1     1     1     1     1     1
     1     1     1     1     1     1     1     1     1     1
     1     1     1     1     1     1     1     1     1     1
     1     1     1     1     1     1     1     1     1     1
     1     1     1     1     1     1     1     1     1     1
     1     1     1     1     1     1     1     1     1     1
     1     1     1     1     1     1     1     1     1     1
     1     1     1     1     1     1     1     1     1     1
     1     1     1     1     1     1     1     1     1     1
     1     1     1     1     1     1     1     1     1     1
     1     1     1     1     1     1     1     1     1     1
     1     1     1     1     1     1     1     1     1     1
     1     1     1     1     1     1     1     1     1     1
     1     1     1     1     1     1     1     1     1     1
     1     1     1     1     1     1     1     1     1     1
     1     1     1     1     1     1     1     1     1     1
     1     1     1     1     1     1     1     1     1     1
     1     1     1     1     1     1     1     1     1     1
     1     1     1     1     1     1     1     1     1     1
     1     1     1     1     1     1     1     1     1     1
     1     1     1     1     1     1     1     1     1     1
     1     1     1     1     1     1     1     1     1     1
     1     1     1     1     1     1     1     1     1     1
     1     1     1     1     1     1     1     1     1     1
     1     1     1     1     1     1     1     1     1     1
     1     1     1     1     1     1     1     1     1     1
     1     1     1     1     1     1     1     1     1     1
     1     1     1     1     1     1     1     1     1     1
     1     1     1     1     1     1     1     1     1     1
     1     1     1     1     1     1     1     1     1     1
     1     1     1     1     1     1     1     1     1     1
     1     1     1     1     1     1     1     1     1     1
     1     1     1     1     1     1     1     1     1     1
     1     1     1     1     1     1     1     1     1     1
     1     1     1     1     1     1     1     1     1     1
     1     1     1     1     1     1     1     1     1     1
     1     1     1     1     1     1     1     1     1     1
     1     1     1     1     1     1     1     1     1     1
     1     1     1     1     1     1     1     1     1     1
     1     1     1     1     1     1     1     1     1     1
     1     1     1     1     1     1     1     1     1     1
     1     1     1     1     1     1     1     1     1     1
     1     1     1     1     1     1     1     1     1     1
     1     1     1     1     1     1     1     1     1     1
     1     1     1     1     1     1     1     1     1     1
     1     1     1     1     1     1     1     1     1     1
     1     1     1     1     1     1     1     1     1     1
     1     1     1     1     1     1     1     1     1     1
     1     1     1     1     1     1     1     1     1     1
     1     1     1     1     1     1     1     1     1     1
     1     1     1     1     1     1     1     1     1     1
     1     1     1     1     1     1     1     1     1     1
     1     1     1     1     1     1     1     1     1     1
     1     1     1     1     1     1     1     1     1     1
     1     1     1     1     1     1     1     1     1     1
     1     1     1     1     1     1     1     1     1     1
     1     1     1     1     1     1     1     1     1     1
     1     1     1     1     1     1     1     1     1     1
     1     1     1     1     1     1     1     1     1     1
     1     1     1     1     1     1     1     1     1     1
     1     1     1     1     1     1     1     1     1     1
     1     1     1     1     1     1     1     1     1     1
     1     1     1     1     1     1     1     1     1     1
     1     1     1     1     1     1     1     1     1     1
     1     1     1     1     1     1     1     1     1     1
     1     1     1     1     1     1     1     1     1     1
     1     1     1     1     1     1     1     1     1     1
     1     1     1     1     1     1     1     1     1     1
     1     1     1     1     1     1     1     1     1     1
     1     1     1     1     1     1     1     1     1     1
     1     1     1     1     1     1     1     1     1     1
     1     1     1     1     1     1     1     1     1     1
     1     1     1     1     1     1     1     1     1     1
     1     1     1     1     1     1     1     1     1     1
     1     1     1     1     1     1     1     1     1     1
     1     1     1     1     1     1     1     1     1     1
     1     1     1     1     1     1     1     1     1     1
     1     1     1     1     1     1     1     1     1     1
     1     1     1     1     1     1     1     1     1     1
     1     1     1     1     1     1     1     1     1     1
     1     1     1     1     1     1     1     1     1     1
     1     1     1     1     1     1     1     1     1     1
     1     1     1     1     1     1     1     1     1     1
     1     1     1     1     1     1     1     1     1     1
     1     1     1     1     1     1     1     1     1     1
     1     1     1     1     1     1     1     1     1     1
     1     1     1     1     1     1     1     1     1     1
     1     1     1     1     1     1     1     1     1     1
     1     1     1     1     1     1     1     1     1     1
     1     1     1     1     1     1     1     1     1     1
 -9.990000000000E+002  # HNOFLO
INTERNAL 1.0 (FREE)       12 # STRT
  6.668450000000E+000   6.668100000000E+000   6.667390000000E+000   6.666320000000E+000   6.664900000000E+000   6.663120000000E+000   6.660990000000E+000   6.658500000000E+000   6.655660000000E+000   6.652460000000E+000 
  6.648910000000E+000   6.645000000000E+000   6.640730000000E+000   6.636110000000E+000   6.631120000000E+000   6.625790000000E+000   6.620090000000E+000   6.614040000000E+000   6.607630000000E+000   6.600870000000E+000 
  6.593740000000E+000   6.586210000000E+000   6.577930000000E+000   6.565480000000E+000   6.521730000000E+000  -9.990000000000E+002  -9.990000000000E+002  -9.990000000000E+002  -9.990000000000E+002  -9.990000000000E+002 
 -9.990000000000E+002  -9.990000000000E+002  -9.990000000000E+002  -9.990000000000E+002  -9.990000000000E+002  -9.990000000000E+002  -9.990000000000E+002  -9.990000000000E+002  -9.990000000000E+002  -9.990000000000E+002 
 -9.990000000000E+002  -9.990000000000E+002  -9.990000000000E+002  -9.990000000000E+002  -9.990000000000E+002  -9.990000000000E+002  -9.990000000000E+002  -9.990000000000E+002  -9.990000000000E+002  -9.990000000000E+002 
  6.668290000000E+000   6.667940000000E+000   6.667230000000E+000   6.666160000000E+000   6.664740000000E+000   6.662970000000E+000   6.660830000000E+000   6.658350000000E+000   6.655500000000E+000   6.652300000000E+000 
  6.648750000000E+000   6.644840000000E+000   6.640570000000E+000   6.635950000000E+000   6.630970000000E+000   6.625630000000E+000   6.619940000000E+000   6.613880000000E+000   6.607470000000E+000   6.600710000000E+000 
  6.593580000000E+000   6.586050000000E+000   6.577770000000E+000   6.565330000000E+000   6.521560000000E+000   6.461760000000E+000   6.397660000000E+000   6.330240000000E+000   6.259070000000E+000  -9.990000000000E+002 
 -9.990000000000E+002  -9.990000000000E+002  -9.990000000000E+002  -9.990000000000E+002  -9.990000000000E+002  -9.990000000000E+002  -9.990000000000E+002  -9.990000000000E+002  -9.990000000000E+002  -9.990000000000E+002 
 -9.990000000000E+002  -9.990000000000E+002  -9.990000000000E+002  -9.990000000000E+002  -9.990000000000E+002  -9.990000000000E+002  -9.990000000000E+002  -9.990000000000E+002  -9.990000000000E+002  -9.990000000000E+002 
  6.668140000000E+000   6.667780000000E+000   6.667070000000E+000   6.666010000000E+000   6.664580000000E+000   6.662810000000E+000   6.660680000000E+000   6.658190000000E+000   6.655350000000E+000   6.652150000000E+000 
  6.648590000000E+000   6.644680000000E+000   6.640410000000E+000   6.635790000000E+000   6.630810000000E+000   6.625470000000E+000   6.619780000000E+000   6.613730000000E+000   6.607320000000E+000   6.600550000000E+000 
  6.593420000000E+000   6.585900000000E+000   6.577620000000E+000   6.565250000000E+000   6.521420000000E+000   6.461570000000E+000   6.397460000000E+000   6.330030000000E+000   6.258900000000E+000   6.184850000000E+000 
  6.107290000000E+000   6.025660000000E+000  -9.990000000000E+002  -9.990000000000E+002  -9.990000000000E+002  -9.990000000000E+002  -9.990000000000E+002  -9.990000000000E+002  -9.990000000000E+002  -9.990000000000E+002 
 -9.990000000000E+002  -9.990000000000E+002  -9.990000000000E+002  -9.990000000000E+002  -9.990000000000E+002  -9.990000000000E+002  -9.990000000000E+002  -9.990000000000E+002  -9.990000000000E+002  -9.990000000000E+002 
  6.667980000000E+000   6.667620000000E+000   6.666910000000E+000   6.665850000000E+000   6.664430000000E+000   6.662650000000E+000   6.660520000000E+000   6.658030000000E+000   6.655190000000E+000   6.651990000000E+000 
  6.648440000000E+000   6.644520000000E+000   6.640260000000E+000   6.635630000000E+000   6.630650000000E+000   6.625320000000E+000   6.619620000000E+000   6.613570000000E+000   6.607160000000E+000   6.600390000000E+000 
  6.593270000000E+000   6.585740000000E+000   6.577490000000E+000   6.565260000000E+000   6.521310000000E+000   6.461400000000E+000   6.397270000000E+000   6.329820000000E+000   6.258710000000E+000   6.184640000000E+000 
  6.107060000000E+000   6.025460000000E+000   5.940320000000E+000   5.851430000000E+000   5.757440000000E+000  -9.990000000000E+002  -9.990000000000E+002  -9.990000000000E+002  -9.990000000000E+002  -9.990000000000E+002 
 -9.990000000000E+002  -9.990000000000E+002  -9.990000000000E+002  -9.990000000000E+002  -9.990000000000E+002  -9.990000000000E+002  -9.990000000000E+002  -9.990000000000E+002  -9.990000000000E+002  -9.990000000000E+002 
  6.667820000000E+000   6.667470000000E+000   6.666760000000E+000   6.665690000000E+000   6.664270000000E+000   6.662500000000E+000   6.660370000000E+000   6.657880000000E+000   6.655030000000E+000   6.651840000000E+000 
  6.648280000000E+000   6.644370000000E+000   6.640100000000E+000   6.635480000000E+000   6.630500000000E+000   6.625160000000E+000   6.619460000000E+000   6.613410000000E+000   6.607000000000E+000   6.600240000000E+000 
  6.593110000000E+000   6.585590000000E+000   6.577360000000E+000   6.565340000000E+000   6.521250000000E+000   6.461240000000E+000   6.397080000000E+000   6.329620000000E+000   6.258530000000E+000   6.184440000000E+000 
  6.106840000000E+000   6.025250000000E+000   5.940100000000E+000   5.851170000000E+000   5.757270000000E+000   5.660900000000E+000   5.584500000000E+000   5.567120000000E+000   5.553070000000E+000   5.538840000000E+000 
  5.524240000000E+000   5.509270000000E+000  -9.990000000000E+002  -9.990000000000E+002  -9.990000000000E+002  -9.990000000000E+002  -9.990000000000E+002  -9.990000000000E+002  -9.990000000000E+002  -9.990000000000E+002 
  6.667670000000E+000   6.667310000000E+000   6.666600000000E+000   6.665540000000E+000   6.664120000000E+000   6.662340000000E+000   6.660210000000E+000   6.657720000000E+000   6.654880000000E+000   6.651680000000E+000 
  6.648130000000E+000   6.644210000000E+000   6.639950000000E+000   6.635320000000E+000   6.630340000000E+000   6.625000000000E+000   6.619310000000E+000   6.613260000000E+000   6.606850000000E+000   6.600080000000E+000 
  6.592950000000E+000   6.585440000000E+000   6.577250000000E+000   6.565500000000E+000   6.521220000000E+000   6.461080000000E+000   6.396910000000E+000   6.329430000000E+000   6.258350000000E+000   6.184250000000E+000 
  6.106630000000E+000   6.025050000000E+000   5.939880000000E+000   5.850920000000E+000   5.757050000000E+000   5.660630000000E+000   5.584270000000E+000   5.566960000000E+000   5.552910000000E+000   5.538680000000E+000 
  5.524080000000E+000   5.509110000000E+000   5.493770000000E+000   5.478070000000E+000   5.461990000000E+000   5.445540000000E+000   5.428720000000E+000   5.411530000000E+000   5.393940000000E+000   5.375000000000E+000 
  6.667520000000E+000   6.667160000000E+000   6.666450000000E+000   6.665390000000E+000   6.663960000000E+000   6.662190000000E+000   6.660060000000E+000   6.657570000000E+000   6.654730000000E+000   6.651530000000E+000 
  6.647970000000E+000   6.644060000000E+000   6.639790000000E+000   6.635170000000E+000   6.630190000000E+000   6.624850000000E+000   6.619160000000E+000   6.613100000000E+000   6.606700000000E+000   6.599930000000E+000 
  6.592800000000E+000   6.585290000000E+000   6.577140000000E+000   6.565750000000E+000   6.521230000000E+000   6.460940000000E+000   6.396740000000E+000   6.329250000000E+000   6.258180000000E+000   6.184060000000E+000 
  6.106430000000E+000   6.024850000000E+000   5.939680000000E+000   5.850680000000E+000   5.756840000000E+000   5.660320000000E+000   5.583890000000E+000   5.566790000000E+000   5.552750000000E+000   5.538520000000E+000 
  5.523920000000E+000   5.508950000000E+000   5.493610000000E+000   5.477910000000E+000   5.461830000000E+000   5.445380000000E+000   5.428560000000E+000   5.411370000000E+000   5.393780000000E+000   5.375000000000E+000 
  6.667360000000E+000   6.667010000000E+000   6.666300000000E+000   6.665230000000E+000   6.663810000000E+000   6.662040000000E+000   6.659900000000E+000   6.657420000000E+000   6.654570000000E+000   6.651370000000E+000 
  6.647820000000E+000   6.643910000000E+000   6.639640000000E+000   6.635020000000E+000   6.630030000000E+000   6.624700000000E+000   6.619000000000E+000   6.612950000000E+000   6.606540000000E+000   6.599780000000E+000 
  6.592650000000E+000   6.585140000000E+000   6.577040000000E+000   6.566080000000E+000   6.521290000000E+000   6.460810000000E+000   6.396580000000E+000   6.329080000000E+000   6.258020000000E+000   6.183890000000E+000 
  6.106240000000E+000   6.024670000000E+000   5.939480000000E+000   5.850450000000E+000   5.756630000000E+000   5.659960000000E+000   5.583370000000E+000   5.566610000000E+000   5.552590000000E+000   5.538360000000E+000 
  5.523760000000E+000   5.508790000000E+000   5.493450000000E+000   5.477750000000E+000   5.461670000000E+000   5.445220000000E+000   5.428400000000E+000   5.411210000000E+000   5.393620000000E+000   5.375000000000E+000 
  6.667210000000E+000   6.666860000000E+000   6.666150000000E+000   6.665080000000E+000   6.663660000000E+000   6.661880000000E+000   6.659750000000E+000   6.657270000000E+000   6.654420000000E+000   6.651220000000E+000 
  6.647670000000E+000   6.643760000000E+000   6.639490000000E+000   6.634860000000E+000   6.629880000000E+000   6.624550000000E+000   6.618850000000E+000   6.612800000000E+000   6.606390000000E+000   6.599620000000E+000 
  6.592500000000E+000   6.584990000000E+000   6.576950000000E+000   6.566490000000E+000   6.521380000000E+000   6.460680000000E+000   6.396430000000E+000   6.328920000000E+000   6.257870000000E+000   6.183720000000E+000 
  6.106050000000E+000   6.024490000000E+000   5.939290000000E+000   5.850240000000E+000   5.756430000000E+000   5.659540000000E+000   5.582690000000E+000   5.566420000000E+000   5.552430000000E+000   5.538200000000E+000 
  5.523600000000E+000   5.508640000000E+000   5.493290000000E+000   5.477590000000E+000   5.461510000000E+000   5.445060000000E+000   5.428240000000E+000   5.411050000000E+000   5.393460000000E+000   5.375000000000E+000 
  6.667060000000E+000   6.666710000000E+000   6.666000000000E+000   6.664930000000E+000   6.663510000000E+000   6.661730000000E+000   6.659600000000E+000   6.657110000000E+000   6.654270000000E+000   6.651070000000E+000 
  6.647520000000E+000   6.643600000000E+000   6.639340000000E+000   6.634710000000E+000   6.629730000000E+000   6.624390000000E+000   6.618700000000E+000   6.612650000000E+000   6.606240000000E+000   6.599470000000E+000 
  6.592350000000E+000   6.584850000000E+000   6.576860000000E+000   6.566990000000E+000   6.521510000000E+000   6.460570000000E+000   6.396290000000E+000   6.328760000000E+000   6.257720000000E+000   6.183560000000E+000 
  6.105880000000E+000   6.024320000000E+000   5.939120000000E+000   5.850030000000E+000   5.756250000000E+000   5.659080000000E+000   5.581860000000E+000   5.566230000000E+000   5.552280000000E+000   5.538040000000E+000 
  5.523450000000E+000   5.508480000000E+000   5.493140000000E+000   5.477430000000E+000   5.461350000000E+000   5.444910000000E+000   5.428090000000E+000   5.410890000000E+000   5.393310000000E+000   5.375000000000E+000 
  6.666910000000E+000   6.666560000000E+000   6.665850000000E+000   6.664780000000E+000   6.663360000000E+000   6.661580000000E+000   6.659450000000E+000   6.656960000000E+000   6.654120000000E+000   6.650920000000E+000 
  6.647370000000E+000   6.643450000000E+000   6.639190000000E+000   6.634560000000E+000   6.629580000000E+000   6.624240000000E+000   6.618550000000E+000   6.612500000000E+000   6.606090000000E+000   6.599320000000E+000 
  6.592200000000E+000   6.584700000000E+000   6.576780000000E+000   6.567570000000E+000   6.521680000000E+000   6.460460000000E+000   6.396160000000E+000   6.328620000000E+000   6.257590000000E+000   6.183410000000E+000 
  6.105720000000E+000   6.024170000000E+000   5.938950000000E+000   5.849840000000E+000   5.756060000000E+000   5.658570000000E+000   5.580880000000E+000   5.566030000000E+000   5.552120000000E+000   5.537890000000E+000 
  5.523290000000E+000   5.508320000000E+000   5.492980000000E+000   5.477280000000E+000   5.461200000000E+000   5.444750000000E+000   5.427930000000E+000   5.410740000000E+000   5.393160000000E+000   5.375000000000E+000 
  6.666760000000E+000   6.666410000000E+000   6.665700000000E+000   6.664630000000E+000   6.663210000000E+000   6.661430000000E+000   6.659300000000E+000   6.656810000000E+000   6.653970000000E+000   6.650770000000E+000 
  6.647220000000E+000   6.643310000000E+000   6.639040000000E+000   6.634410000000E+000   6.629430000000E+000   6.624090000000E+000   6.618400000000E+000   6.612350000000E+000   6.605940000000E+000   6.599170000000E+000 
  6.592050000000E+000   6.584560000000E+000   6.576700000000E+000   6.568250000000E+000   6.521890000000E+000   6.460360000000E+000   6.396030000000E+000   6.328480000000E+000   6.257460000000E+000   6.183270000000E+000 
  6.105570000000E+000   6.024020000000E+000   5.938790000000E+000   5.849660000000E+000   5.755890000000E+000   5.658010000000E+000   5.579750000000E+000   5.565840000000E+000   5.551960000000E+000   5.537730000000E+000 
  5.523130000000E+000   5.508170000000E+000   5.492830000000E+000   5.477120000000E+000   5.461040000000E+000   5.444590000000E+000   5.427770000000E+000   5.410580000000E+000   5.393010000000E+000   5.375000000000E+000 
  6.666680000000E+000   6.666330000000E+000   6.665620000000E+000   6.664550000000E+000   6.663130000000E+000   6.661360000000E+000   6.659220000000E+000   6.656740000000E+000   6.653890000000E+000   6.650690000000E+000 
  6.647140000000E+000   6.643230000000E+000   6.638960000000E+000   6.634340000000E+000   6.629350000000E+000   6.624020000000E+000   6.618320000000E+000   6.612270000000E+000   6.605860000000E+000   6.599090000000E+000 
  6.591970000000E+000   6.584490000000E+000   6.576660000000E+000   6.568660000000E+000   6.522140000000E+000   6.460270000000E+000   6.395910000000E+000   6.328350000000E+000   6.257340000000E+000   6.183140000000E+000 
  6.105430000000E+000   6.023880000000E+000   5.938640000000E+000   5.849500000000E+000   5.755730000000E+000   5.657390000000E+000   5.579060000000E+000   5.565730000000E+000   5.551880000000E+000   5.537650000000E+000 
  5.523050000000E+000   5.508090000000E+000   5.492750000000E+000   5.477040000000E+000   5.460960000000E+000   5.444510000000E+000   5.427690000000E+000   5.410500000000E+000   5.392940000000E+000   5.375000000000E+000 
  6.666680000000E+000   6.666320000000E+000   6.665610000000E+000   6.664550000000E+000   6.663130000000E+000   6.661350000000E+000   6.659220000000E+000   6.656730000000E+000   6.653890000000E+000   6.650690000000E+000 
  6.647130000000E+000   6.643220000000E+000   6.638950000000E+000   6.634330000000E+000   6.629350000000E+000   6.624010000000E+000   6.618310000000E+000   6.612260000000E+000   6.605850000000E+000   6.599090000000E+000 
  6.591960000000E+000   6.584480000000E+000   6.576660000000E+000   6.568690000000E+000   6.522320000000E+000   6.460180000000E+000   6.395800000000E+000   6.328230000000E+000   6.257220000000E+000   6.183020000000E+000 
  6.105300000000E+000   6.023750000000E+000   5.938510000000E+000   5.849340000000E+000   5.755580000000E+000   5.656910000000E+000   5.579010000000E+000   5.565720000000E+000   5.551870000000E+000   5.537640000000E+000 
  5.523050000000E+000   5.508080000000E+000   5.492740000000E+000   5.477030000000E+000   5.460950000000E+000   5.444510000000E+000   5.427680000000E+000   5.410490000000E+000   5.392930000000E+000   5.375000000000E+000 
  6.666670000000E+000   6.666320000000E+000   6.665610000000E+000   6.664540000000E+000   6.663120000000E+000   6.661340000000E+000   6.659210000000E+000   6.656720000000E+000   6.653880000000E+000   6.650680000000E+000 
  6.647130000000E+000   6.643220000000E+000   6.638950000000E+000   6.634320000000E+000   6.629340000000E+000   6.624000000000E+000   6.618310000000E+000   6.612260000000E+000   6.605850000000E+000   6.599080000000E+000 
  6.591960000000E+000   6.584480000000E+000   6.576650000000E+000   6.568710000000E+000   6.522430000000E+000   6.460100000000E+000   6.395700000000E+000   6.328120000000E+000   6.257120000000E+000   6.182910000000E+000 
  6.105170000000E+000   6.023620000000E+000   5.938380000000E+000   5.849200000000E+000   5.755440000000E+000   5.656550000000E+000   5.578980000000E+000   5.565720000000E+000   5.551870000000E+000   5.537640000000E+000 
  5.523040000000E+000   5.508070000000E+000   5.492730000000E+000   5.477030000000E+000   5.460950000000E+000   5.444500000000E+000   5.427680000000E+000   5.410490000000E+000   5.392920000000E+000   5.375000000000E+000 
  6.666670000000E+000   6.666310000000E+000   6.665600000000E+000   6.664540000000E+000   6.663120000000E+000   6.661340000000E+000   6.659210000000E+000   6.656720000000E+000   6.653880000000E+000   6.650680000000E+000 
  6.647120000000E+000   6.643210000000E+000   6.638940000000E+000   6.634320000000E+000   6.629340000000E+000   6.624000000000E+000   6.618300000000E+000   6.612250000000E+000   6.605840000000E+000   6.599080000000E+000 
  6.591950000000E+000   6.584470000000E+000   6.576650000000E+000   6.568720000000E+000   6.522480000000E+000   6.460030000000E+000   6.395610000000E+000   6.328020000000E+000   6.257020000000E+000   6.182800000000E+000 
  6.105060000000E+000   6.023510000000E+000   5.938260000000E+000   5.849060000000E+000   5.755320000000E+000   5.656310000000E+000   5.578960000000E+000   5.565710000000E+000   5.551860000000E+000   5.537630000000E+000 
  5.523040000000E+000   5.508070000000E+000   5.492730000000E+000   5.477020000000E+000   5.460940000000E+000   5.444490000000E+000   5.427670000000E+000   5.410480000000E+000   5.392920000000E+000   5.375000000000E+000 
  6.666660000000E+000   6.666310000000E+000   6.665600000000E+000   6.664530000000E+000   6.663110000000E+000   6.661340000000E+000   6.659200000000E+000   6.656720000000E+000   6.653870000000E+000   6.650670000000E+000 
  6.647120000000E+000   6.643210000000E+000   6.638940000000E+000   6.634310000000E+000   6.629330000000E+000   6.624000000000E+000   6.618300000000E+000   6.612250000000E+000   6.605840000000E+000   6.599070000000E+000 
  6.591950000000E+000   6.584470000000E+000   6.576650000000E+000   6.568730000000E+000   6.522470000000E+000   6.459960000000E+000   6.395520000000E+000   6.327930000000E+000   6.256930000000E+000   6.182700000000E+000 
  6.104960000000E+000   6.023410000000E+000   5.938150000000E+000   5.848940000000E+000   5.755210000000E+000   5.656190000000E+000   5.578950000000E+000   5.565710000000E+000   5.551860000000E+000   5.537630000000E+000 
  5.523030000000E+000   5.508060000000E+000   5.492720000000E+000   5.477020000000E+000   5.460940000000E+000   5.444490000000E+000   5.427670000000E+000   5.410480000000E+000   5.392910000000E+000   5.375000000000E+000 
  6.666660000000E+000   6.666310000000E+000   6.665600000000E+000   6.664530000000E+000   6.663110000000E+000   6.661330000000E+000   6.659200000000E+000   6.656710000000E+000   6.653870000000E+000   6.650670000000E+000 
  6.647120000000E+000   6.643200000000E+000   6.638940000000E+000   6.634310000000E+000   6.629330000000E+000   6.623990000000E+000   6.618300000000E+000   6.612250000000E+000   6.605840000000E+000   6.599070000000E+000 
  6.591940000000E+000   6.584460000000E+000   6.576650000000E+000   6.568720000000E+000   6.522390000000E+000   6.459890000000E+000   6.395440000000E+000   6.327850000000E+000   6.256850000000E+000   6.182620000000E+000 
  6.104860000000E+000   6.023320000000E+000   5.938050000000E+000   5.848830000000E+000   5.755110000000E+000   5.656200000000E+000   5.578960000000E+000   5.565700000000E+000   5.551860000000E+000   5.537630000000E+000 
  5.523030000000E+000   5.508060000000E+000   5.492720000000E+000   5.477010000000E+000   5.460940000000E+000   5.444490000000E+000   5.427670000000E+000   5.410470000000E+000   5.392910000000E+000   5.375000000000E+000 
  6.666660000000E+000   6.666300000000E+000   6.665590000000E+000   6.664530000000E+000   6.663110000000E+000   6.661330000000E+000   6.659200000000E+000   6.656710000000E+000   6.653870000000E+000   6.650670000000E+000 
  6.647110000000E+000   6.643200000000E+000   6.638930000000E+000   6.634310000000E+000   6.629330000000E+000   6.623990000000E+000   6.618300000000E+000   6.612240000000E+000   6.605830000000E+000   6.599070000000E+000 
  6.591940000000E+000   6.584460000000E+000   6.576640000000E+000   6.568710000000E+000   6.522250000000E+000   6.459830000000E+000   6.395370000000E+000   6.327770000000E+000   6.256770000000E+000   6.182540000000E+000 
  6.104780000000E+000   6.023230000000E+000   5.937960000000E+000   5.848730000000E+000   5.755020000000E+000   5.656320000000E+000   5.578980000000E+000   5.565700000000E+000   5.551850000000E+000   5.537620000000E+000 
  5.523030000000E+000   5.508060000000E+000   5.492720000000E+000   5.477010000000E+000   5.460930000000E+000   5.444490000000E+000   5.427660000000E+000   5.410470000000E+000   5.392910000000E+000   5.375000000000E+000 
  6.666660000000E+000   6.666300000000E+000   6.665590000000E+000   6.664530000000E+000   6.663110000000E+000   6.661330000000E+000   6.659200000000E+000   6.656710000000E+000   6.653870000000E+000   6.650670000000E+000 
  6.647110000000E+000   6.643200000000E+000   6.638930000000E+000   6.634310000000E+000   6.629330000000E+000   6.623990000000E+000   6.618290000000E+000   6.612240000000E+000   6.605830000000E+000   6.599070000000E+000 