# Name File for MODFLOW created on 5/18/2019 by ModelMuse Version 3.10.0.60
LIST             11 ..\..\output\output.ImportedP1_Case1d\ImportedP1_Case1d.lst REPLACE
DATA(BINARY)      9 ..\..\output\output.ImportedP1_Case1d\ImportedP1_Case1d.cbc REPLACE
DIS              12 ..\..\model\model.ImportedP1_Case1d\ImportedP1_Case1d.dis OLD
BAS6             13 ..\..\model\model.ImportedP1_Case1d\ImportedP1_Case1d.bas OLD
OC               39 ..\..\model\model.ImportedP1_Case1d\ImportedP1_Case1d.oc OLD
DATA             37 ..\..\output\output.ImportedP1_Case1d\ImportedP1_Case1d.fhd REPLACE
DATA             38 ..\..\output\output.ImportedP1_Case1d\ImportedP1_Case1d.fdn REPLACE
PCG              18 ..\..\model\model.ImportedP1_Case1d\ImportedP1_Case1d.pcg OLD
BCF6             64 ..\..\model\model.ImportedP1_Case1d\ImportedP1_Case1d.bcf OLD
LMT6            135 ..\..\model\model.ImportedP1_Case1d\ImportedP1_Case1d.lmt OLD
CHD              17 ..\..\model\model.ImportedP1_Case1d\ImportedP1_Case1d.chd OLD
