# Name File for MODFLOW created on 5/18/2019 by ModelMuse Version 3.10.0.60
LIST             11 ImportedP8.lst REPLACE
DATA(BINARY)      9 ImportedP8.cbc REPLACE
DIS              12 ImportedP8.dis OLD
BAS6             13 ImportedP8.bas OLD
OC               39 ImportedP8.oc OLD
DATA             37 ImportedP8.fhd REPLACE
DATA             38 ImportedP8.fdn REPLACE
PCG              18 ImportedP8.pcg OLD
BCF6             64 ImportedP8.bcf OLD
LMT6            135 ImportedP8.lmt OLD
CHD              17 ImportedP8.chd OLD
RCH              24 ImportedP8.rch OLD
