# Name File for MODFLOW created on 12/14/2015 by ModelMuse
LIST             11 ImportedSub4.lst REPLACE
DIS              12 ImportedSub4.dis OLD
BAS6             13 ImportedSub4.bas OLD
OC               39 ImportedSub4.oc OLD
DATA             37 ImportedSub4.fhd REPLACE
DATA             38 ImportedSub4.fdn REPLACE
SIP              35 ImportedSub4.sip OLD
BCF6             64 ImportedSub4.bcf OLD
CHD              17 ImportedSub4.chd OLD
WEL              20 ImportedSub4.wel OLD
SUB              65 ImportedSub4.sub OLD
DATA(BINARY)    110 ImportedSub4.Sub_Out REPLACE
