# Name File for MODFLOW created on 5/18/2019 by ModelMuse Version 3.10.0.60
LIST             11 ImportedP1_Case1a.lst REPLACE
DATA(BINARY)      9 ImportedP1_Case1a.cbc REPLACE
DIS              12 ImportedP1_Case1a.dis OLD
BAS6             13 ImportedP1_Case1a.bas OLD
OC               39 ImportedP1_Case1a.oc OLD
DATA             37 ImportedP1_Case1a.fhd REPLACE
DATA             38 ImportedP1_Case1a.fdn REPLACE
PCG              18 ImportedP1_Case1a.pcg OLD
BCF6             64 ImportedP1_Case1a.bcf OLD
LMT6            135 ImportedP1_Case1a.lmt OLD
CHD              17 ImportedP1_Case1a.chd OLD
