# Name File for MODFLOW created on 5/18/2019 by ModelMuse Version 3.10.0.60
LIST             11 ..\..\output\output.ImportedP1_Case1c\ImportedP1_Case1c.lst REPLACE
DATA(BINARY)      9 ..\..\output\output.ImportedP1_Case1c\ImportedP1_Case1c.cbc REPLACE
DIS              12 ..\..\model\model.ImportedP1_Case1c\ImportedP1_Case1c.dis OLD
BAS6             13 ..\..\model\model.ImportedP1_Case1c\ImportedP1_Case1c.bas OLD
OC               39 ..\..\model\model.ImportedP1_Case1c\ImportedP1_Case1c.oc OLD
DATA             37 ..\..\output\output.ImportedP1_Case1c\ImportedP1_Case1c.fhd REPLACE
DATA             38 ..\..\output\output.ImportedP1_Case1c\ImportedP1_Case1c.fdn REPLACE
PCG              18 ..\..\model\model.ImportedP1_Case1c\ImportedP1_Case1c.pcg OLD
BCF6             64 ..\..\model\model.ImportedP1_Case1c\ImportedP1_Case1c.bcf OLD
LMT6            135 ..\..\model\model.ImportedP1_Case1c\ImportedP1_Case1c.lmt OLD
CHD              17 ..\..\model\model.ImportedP1_Case1c\ImportedP1_Case1c.chd OLD
