# Name File for MODFLOW created on 5/18/2019 by ModelMuse Version 3.10.0.60
LIST             11 ..\..\output\output.ImportMt3dmsMultidiffusion\ImportMt3dmsMultidiffusion.lst REPLACE
DATA(BINARY)      9 ..\..\output\output.ImportMt3dmsMultidiffusion\ImportMt3dmsMultidiffusion.cbc REPLACE
DIS              12 ..\..\model\model.ImportMt3dmsMultidiffusion\ImportMt3dmsMultidiffusion.dis OLD
BAS6             13 ..\..\model\model.ImportMt3dmsMultidiffusion\ImportMt3dmsMultidiffusion.bas OLD
OC               39 ..\..\model\model.ImportMt3dmsMultidiffusion\ImportMt3dmsMultidiffusion.oc OLD
DATA             37 ..\..\output\output.ImportMt3dmsMultidiffusion\ImportMt3dmsMultidiffusion.fhd REPLACE
DATA             38 ..\..\output\output.ImportMt3dmsMultidiffusion\ImportMt3dmsMultidiffusion.fdn REPLACE
SIP              35 ..\..\model\model.ImportMt3dmsMultidiffusion\ImportMt3dmsMultidiffusion.sip OLD
BCF6             64 ..\..\model\model.ImportMt3dmsMultidiffusion\ImportMt3dmsMultidiffusion.bcf OLD
LMT6            135 ..\..\model\model.ImportMt3dmsMultidiffusion\ImportMt3dmsMultidiffusion.lmt OLD
CHD              17 ..\..\model\model.ImportMt3dmsMultidiffusion\ImportMt3dmsMultidiffusion.chd OLD
WEL              20 ..\..\model\model.ImportMt3dmsMultidiffusion\ImportMt3dmsMultidiffusion.wel OLD
