# Name File for MODFLOW created on 2/1/2017 by ModelMuse Version 3.8.1.27
LIST             11 ..\..\output\output.ImportedKdep\ImportedKdep.lst REPLACE
DATA(BINARY)      9 ..\..\output\output.ImportedKdep\ImportedKdep.cbc REPLACE
DIS              12 ..\..\model\model.ImportedKdep\ImportedKdep.dis OLD
BAS6             13 ..\..\model\model.ImportedKdep\ImportedKdep.bas OLD
OC               39 ..\..\model\model.ImportedKdep\ImportedKdep.oc OLD
DATA             37 ..\..\output\output.ImportedKdep\ImportedKdep.fhd REPLACE
DATA             38 ..\..\output\output.ImportedKdep\ImportedKdep.fdn REPLACE
PCG              18 ..\..\model\model.ImportedKdep\ImportedKdep.pcg OLD
HUF2             53 ..\..\model\model.ImportedKdep\ImportedKdep.huf OLD
KDEP             56 ..\..\model\model.ImportedKdep\ImportedKdep.kdep OLD
GHB              19 ..\..\model\model.ImportedKdep\ImportedKdep.ghb OLD
GBOB             46 ..\..\model\model.ImportedKdep\ImportedKdep.ob_gbob OLD
DATA             47 ..\..\output\output.ImportedKdep\ImportedKdep.gbob_out REPLACE
WEL              20 ..\..\model\model.ImportedKdep\ImportedKdep.wel OLD
DRN              22 ..\..\model\model.ImportedKdep\ImportedKdep.drn OLD
DROB             44 ..\..\model\model.ImportedKdep\ImportedKdep.ob_drob OLD
DATA             45 ..\..\output\output.ImportedKdep\ImportedKdep.drob_out REPLACE
RCH              24 ..\..\model\model.ImportedKdep\ImportedKdep.rch OLD
EVT              25 ..\..\model\model.ImportedKdep\ImportedKdep.evt OLD
ZONE             15 ..\..\model\model.ImportedKdep\ImportedKdep.zon OLD
MULT             16 ..\..\model\model.ImportedKdep\ImportedKdep.mlt OLD
HOB              41 ..\..\model\model.ImportedKdep\ImportedKdep.ob_hob OLD
DATA             42 ..\..\output\output.ImportedKdep\ImportedKdep.hob_out REPLACE
PVAL             52 ..\..\model\model.ImportedKdep\ImportedKdep.pval OLD
