# Name File for MT3DMS created on 6/7/2012 by ModelMuse
LIST 16 ImportedP1_Case1b.mls
FTL 10 ImportedP1_Case1b.ftl
DATA 17 ImportedP1_Case1b.cnf
BTN 1 ImportedP1_Case1b.btn
DATA(BINARY) 201 ImportedP1_Case1b_Comp1.ucn
DATA 601 ImportedP1_Case1b_Comp1._mas
DATA 401 ImportedP1_Case1b_Comp1.mto
ADV 2 ImportedP1_Case1b.adv
DSP 3 ImportedP1_Case1b.dsp
SSM 4 ImportedP1_Case1b.ssm
GCG 9 ImportedP1_Case1b.gcg
