# Name File for MODFLOW created on 5/18/2019 by ModelMuse Version 3.10.0.60
LIST             11 ImportedP2_nonlinear.lst REPLACE
DATA(BINARY)      9 ImportedP2_nonlinear.cbc REPLACE
DIS              12 ImportedP2_nonlinear.dis OLD
BAS6             13 ImportedP2_nonlinear.bas OLD
OC               39 ImportedP2_nonlinear.oc OLD
DATA             37 ImportedP2_nonlinear.fhd REPLACE
DATA             38 ImportedP2_nonlinear.fdn REPLACE
SIP              35 ImportedP2_nonlinear.sip OLD
BCF6             64 ImportedP2_nonlinear.bcf OLD
LMT6            135 ImportedP2_nonlinear.lmt OLD
CHD              17 ImportedP2_nonlinear.chd OLD
