# MT3DMS Benchmark Test Problem #2
# Based on GROVE & STOLLENWERK (1984)
# Basic Package file created on 6/8/2020 by ModelMuse version 4.2.0.17.
# Number of active cells = 101.
FREE XSECTION  # OPTIONS
INTERNAL 1 (FREE)        5 # IBOUND
     1     1     1     1     1     1     1     1     1     1
     1     1     1     1     1     1     1     1     1     1
     1     1     1     1     1     1     1     1     1     1
     1     1     1     1     1     1     1     1     1     1
     1     1     1     1     1     1     1     1     1     1
     1     1     1     1     1     1     1     1     1     1
     1     1     1     1     1     1     1     1     1     1
     1     1     1     1     1     1     1     1     1     1
     1     1     1     1     1     1     1     1     1     1
     1     1     1     1     1     1     1     1     1     1
     1
  9.999900000000E+002  # HNOFLO
INTERNAL 1.0 (FREE)       12 # STRT
  5.920000000000E-001   0.000000000000E+000   0.000000000000E+000   0.000000000000E+000   0.000000000000E+000   0.000000000000E+000   0.000000000000E+000   0.000000000000E+000   0.000000000000E+000   0.000000000000E+000 
  0.000000000000E+000   0.000000000000E+000   0.000000000000E+000   0.000000000000E+000   0.000000000000E+000   0.000000000000E+000   0.000000000000E+000   0.000000000000E+000   0.000000000000E+000   0.000000000000E+000 
  0.000000000000E+000   0.000000000000E+000   0.000000000000E+000   0.000000000000E+000   0.000000000000E+000   0.000000000000E+000   0.000000000000E+000   0.000000000000E+000   0.000000000000E+000   0.000000000000E+000 
  0.000000000000E+000   0.000000000000E+000   0.000000000000E+000   0.000000000000E+000   0.000000000000E+000   0.000000000000E+000   0.000000000000E+000   0.000000000000E+000   0.000000000000E+000   0.000000000000E+000 
  0.000000000000E+000   0.000000000000E+000   0.000000000000E+000   0.000000000000E+000   0.000000000000E+000   0.000000000000E+000   0.000000000000E+000   0.000000000000E+000   0.000000000000E+000   0.000000000000E+000 
  0.000000000000E+000   0.000000000000E+000   0.000000000000E+000   0.000000000000E+000   0.000000000000E+000   0.000000000000E+000   0.000000000000E+000   0.000000000000E+000   0.000000000000E+000   0.000000000000E+000 
  0.000000000000E+000   0.000000000000E+000   0.000000000000E+000   0.000000000000E+000   0.000000000000E+000   0.000000000000E+000   0.000000000000E+000   0.000000000000E+000   0.000000000000E+000   0.000000000000E+000 
  0.000000000000E+000   0.000000000000E+000   0.000000000000E+000   0.000000000000E+000   0.000000000000E+000   0.000000000000E+000   0.000000000000E+000   0.000000000000E+000   0.000000000000E+000   0.000000000000E+000 
  0.000000000000E+000   0.000000000000E+000   0.000000000000E+000   0.000000000000E+000   0.000000000000E+000   0.000000000000E+000   0.000000000000E+000   0.000000000000E+000   0.000000000000E+000   0.000000000000E+000 
  0.000000000000E+000   0.000000000000E+000   0.000000000000E+000   0.000000000000E+000   0.000000000000E+000   0.000000000000E+000   0.000000000000E+000   0.000000000000E+000   0.000000000000E+000   0.000000000000E+000 
  0.000000000000E+000 
