# Name File for MODFLOW created on 5/18/2019 by ModelMuse Version 3.10.0.60
LIST             11 ImportedP1_Case1c.lst REPLACE
DATA(BINARY)      9 ImportedP1_Case1c.cbc REPLACE
DIS              12 ImportedP1_Case1c.dis OLD
BAS6             13 ImportedP1_Case1c.bas OLD
OC               39 ImportedP1_Case1c.oc OLD
DATA             37 ImportedP1_Case1c.fhd REPLACE
DATA             38 ImportedP1_Case1c.fdn REPLACE
PCG              18 ImportedP1_Case1c.pcg OLD
BCF6             64 ImportedP1_Case1c.bcf OLD
LMT6            135 ImportedP1_Case1c.lmt OLD
CHD              17 ImportedP1_Case1c.chd OLD
