MT3DMS Benchmark Test Problem #10
3-D Flow and Transport
         4        61        40         1         1         1         0 # Data Set 3: NLAY NROW NCOL NPER NCOMP MCOMP, IATS
 day  ft   g # Data Set 4: TUNIT LUNIT MUNIT

 0 0 0 0 # Data Set 6: LAYCON
       103        1.                            12 # DELR
  2.000000000000E+003   1.600000000000E+003   8.000000000000E+002   4.000000000000E+002   2.000000000000E+002   1.000000000000E+002   5.000000000000E+001   5.000000000000E+001   5.000000000000E+001   5.000000000000E+001 
  5.000000000000E+001   5.000000000000E+001   5.000000000000E+001   5.000000000000E+001   5.000000000000E+001   5.000000000000E+001   5.000000000000E+001   5.000000000000E+001   5.000000000000E+001   5.000000000000E+001 
  5.000000000000E+001   5.000000000000E+001   5.000000000000E+001   5.000000000000E+001   5.000000000000E+001   5.000000000000E+001   5.000000000000E+001   5.000000000000E+001   5.000000000000E+001   5.000000000000E+001 
  5.000000000000E+001   5.000000000000E+001   5.000000000000E+001   5.000000000000E+001   1.000000000000E+002   2.000000000000E+002   4.000000000000E+002   8.000000000000E+002   1.600000000000E+003   2.000000000000E+003 
       103        1.                            12 # DELC
  2.000000000000E+003   2.000000000000E+003   2.000000000000E+003   1.600000000000E+003   8.000000000000E+002   4.000000000000E+002   2.000000000000E+002   1.000000000000E+002   5.000000000000E+001   5.000000000000E+001 
  5.000000000000E+001   5.000000000000E+001   5.000000000000E+001   5.000000000000E+001   5.000000000000E+001   5.000000000000E+001   5.000000000000E+001   5.000000000000E+001   5.000000000000E+001   5.000000000000E+001 
  5.000000000000E+001   5.000000000000E+001   5.000000000000E+001   5.000000000000E+001   5.000000000000E+001   5.000000000000E+001   5.000000000000E+001   5.000000000000E+001   5.000000000000E+001   5.000000000000E+001 
  5.000000000000E+001   5.000000000000E+001   5.000000000000E+001   5.000000000000E+001   5.000000000000E+001   5.000000000000E+001   5.000000000000E+001   5.000000000000E+001   5.000000000000E+001   5.000000000000E+001 
  5.000000000000E+001   5.000000000000E+001   5.000000000000E+001   5.000000000000E+001   5.000000000000E+001   5.000000000000E+001   5.000000000000E+001   5.000000000000E+001   5.000000000000E+001   5.000000000000E+001 
  5.000000000000E+001   5.000000000000E+001   5.000000000000E+001   1.000000000000E+002   2.000000000000E+002   4.000000000000E+002   8.000000000000E+002   1.600000000000E+003   2.000000000000E+003   2.000000000000E+003 
  2.000000000000E+003 
         0       780                            12 # TOP
         0        25                            12 # Data Set 10: DZ Layer: 1
         0        25                            12 # Data Set 10: DZ Layer: 2
         0        25                            12 # Data Set 10: DZ Layer: 3
         0        25                            12 # Data Set 10: DZ Layer: 4
         0       0.3                            12 # Data Set 11: PRSITY, Layer: 1
         0       0.3                            12 # Data Set 11: PRSITY, Layer: 2
         0       0.3                            12 # Data Set 11: PRSITY, Layer: 3
         0       0.3                            12 # Data Set 11: PRSITY, Layer: 4
         0         1                             5 # Data Set 12: ICBUND, Layer: 1
         0         1                             5 # Data Set 12: ICBUND, Layer: 2
         0         1                             5 # Data Set 12: ICBUND, Layer: 3
         0         1                             5 # Data Set 12: ICBUND, Layer: 4
         0         0                            12 # Data Set 13: SCONC: Comp1, Layer: 1
       103        1.                            12 # Data Set 13: SCONC: Comp1, Layer: 2
  0.000000000000E+000   0.000000000000E+000   0.000000000000E+000   0.000000000000E+000   0.000000000000E+000   0.000000000000E+000   0.000000000000E+000   0.000000000000E+000   0.000000000000E+000   0.000000000000E+000 
  0.000000000000E+000   0.000000000000E+000   0.000000000000E+000   0.000000000000E+000   0.000000000000E+000   0.000000000000E+000   0.000000000000E+000   0.000000000000E+000   0.000000000000E+000   0.000000000000E+000 
  0.000000000000E+000   0.000000000000E+000   0.000000000000E+000   0.000000000000E+000   0.000000000000E+000   0.000000000000E+000   0.000000000000E+000   0.000000000000E+000   0.000000000000E+000   0.000000000000E+000 
  0.000000000000E+000   0.000000000000E+000   0.000000000000E+000   0.000000000000E+000   0.000000000000E+000   0.000000000000E+000   0.000000000000E+000   0.000000000000E+000   0.000000000000E+000   0.000000000000E+000 
  0.000000000000E+000   0.000000000000E+000   0.000000000000E+000   0.000000000000E+000   0.000000000000E+000   0.000000000000E+000   0.000000000000E+000   0.000000000000E+000   0.000000000000E+000   0.000000000000E+000 
  0.000000000000E+000   0.000000000000E+000   0.000000000000E+000   0.000000000000E+000   0.000000000000E+000   0.000000000000E+000   0.000000000000E+000   0.000000000000E+000   0.000000000000E+000   0.000000000000E+000 
  0.000000000000E+000   0.000000000000E+000   0.000000000000E+000   0.000000000000E+000   0.000000000000E+000   0.000000000000E+000   0.000000000000E+000   0.000000000000E+000   0.000000000000E+000   0.000000000000E+000 
  0.000000000000E+000   0.000000000000E+000   0.000000000000E+000   0.000000000000E+000   0.000000000000E+000   0.000000000000E+000   0.000000000000E+000   0.000000000000E+000   0.000000000000E+000   0.000000000000E+000 
  0.000000000000E+000   0.000000000000E+000   0.000000000000E+000   0.000000000000E+000   0.000000000000E+000   0.000000000000E+000   0.000000000000E+000   0.000000000000E+000   0.000000000000E+000   0.000000000000E+000 
  0.000000000000E+000   0.000000000000E+000   0.000000000000E+000   0.000000000000E+000   0.000000000000E+000   0.000000000000E+000   0.000000000000E+000   0.000000000000E+000   0.000000000000E+000   0.000000000000E+000 
  0.000000000000E+000   0.000000000000E+000   0.000000000000E+000   0.000000000000E+000   0.000000000000E+000   0.000000000000E+000   0.000000000000E+000   0.000000000000E+000   0.000000000000E+000   0.000000000000E+000 
  0.000000000000E+000   0.000000000000E+000   0.000000000000E+000   0.000000000000E+000   0.000000000000E+000   0.000000000000E+000   0.000000000000E+000   0.000000000000E+000   0.000000000000E+000   0.000000000000E+000 
  0.000000000000E+000   0.000000000000E+000   0.000000000000E+000   0.000000000000E+000   0.000000000000E+000   0.000000000000E+000   0.000000000000E+000   0.000000000000E+000   0.000000000000E+000   0.000000000000E+000 
  0.000000000000E+000   0.000000000000E+000   0.000000000000E+000   0.000000000000E+000   0.000000000000E+000   0.000000000000E+000   0.000000000000E+000   0.000000000000E+000   0.000000000000E+000   0.000000000000E+000 
  0.000000000000E+000   0.000000000000E+000   0.000000000000E+000   0.000000000000E+000   0.000000000000E+000   0.000000000000E+000   0.000000000000E+000   0.000000000000E+000   0.000000000000E+000   0.000000000000E+000 
  0.000000000000E+000   0.000000000000E+000   0.000000000000E+000   0.000000000000E+000   0.000000000000E+000   0.000000000000E+000   0.000000000000E+000   0.000000000000E+000   0.000000000000E+000   0.000000000000E+000 
  0.000000000000E+000   0.000000000000E+000   0.000000000000E+000   0.000000000000E+000   0.000000000000E+000   0.000000000000E+000   0.000000000000E+000   0.000000000000E+000   0.000000000000E+000   0.000000000000E+000 
  0.000000000000E+000   0.000000000000E+000   0.000000000000E+000   0.000000000000E+000   0.000000000000E+000   0.000000000000E+000   0.000000000000E+000   0.000000000000E+000   0.000000000000E+000   0.000000000000E+000 
  0.000000000000E+000   0.000000000000E+000   0.000000000000E+000   0.000000000000E+000   0.000000000000E+000   0.000000000000E+000   0.000000000000E+000   0.000000000000E+000   0.000000000000E+000   0.000000000000E+000 
  0.000000000000E+000   0.000000000000E+000   0.000000000000E+000   0.000000000000E+000   0.000000000000E+000   0.000000000000E+000   0.000000000000E+000   0.000000000000E+000   0.000000000000E+000   0.000000000000E+000 
  0.000000000000E+000   0.000000000000E+000   0.000000000000E+000   0.000000000000E+000   0.000000000000E+000   0.000000000000E+000   0.000000000000E+000   0.000000000000E+000   0.000000000000E+000   0.000000000000E+000 
  0.000000000000E+000   0.000000000000E+000   0.000000000000E+000   0.000000000000E+000   0.000000000000E+000   0.000000000000E+000   0.000000000000E+000   0.000000000000E+000   0.000000000000E+000   0.000000000000E+000 
  0.000000000000E+000   0.000000000000E+000   0.000000000000E+000   0.000000000000E+000   0.000000000000E+000   0.000000000000E+000   0.000000000000E+000   0.000000000000E+000   0.000000000000E+000   0.000000000000E+000 
  0.000000000000E+000   0.000000000000E+000   2.834000000000E-001   5.798000000000E-001   9.156000000000E-001   1.139400000000E+000   2.794000000000E-001   0.000000000000E+000   0.000000000000E+000   0.000000000000E+000 
  0.000000000000E+000   0.000000000000E+000   0.000000000000E+000   0.000000000000E+000   0.000000000000E+000   0.000000000000E+000   0.000000000000E+000   0.000000000000E+000   1.340000000000E-002   4.266000000000E-001 
  8.314000000000E-001   1.234600000000E+000   1.670800000000E+000   2.214600000000E+000   2.866000000000E+000   3.517000000000E+000   4.099200000000E+000   4.575000000000E+000   4.916000000000E+000   5.093400000000E+000 
  5.079800000000E+000   4.856600000000E+000   4.466800000000E+000   4.256800000000E+000   4.517200000000E+000   4.669800000000E+000   4.491800000000E+000   4.233800000000E+000   4.643000000000E+000   5.546000000000E+000 
  6.336400000000E+000   6.868000000000E+000   7.143400000000E+000   7.197200000000E+000   6.950800000000E+000   5.708800000000E+000   2.329600000000E+000   0.000000000000E+000   0.000000000000E+000   0.000000000000E+000 
  0.000000000000E+000   0.000000000000E+000   0.000000000000E+000   0.000000000000E+000   0.000000000000E+000   0.000000000000E+000   5.846000000000E-001   1.298600000000E+000   2.051000000000E+000   2.836200000000E+000 
  3.653400000000E+000   4.506600000000E+000   5.401000000000E+000   6.339200000000E+000   7.316200000000E+000   8.318400000000E+000   9.328200000000E+000   1.032900000000E+001   1.130760000000E+001   1.225480000000E+001 
  1.316740000000E+001   1.404720000000E+001   1.489680000000E+001   1.570240000000E+001   1.641440000000E+001   1.695220000000E+001   1.724460000000E+001   1.726880000000E+001   1.705040000000E+001   1.662660000000E+001 
  1.602700000000E+001   1.527720000000E+001   1.440580000000E+001   1.344420000000E+001   1.189620000000E+001   8.706000000000E+000   3.203200000000E+000   0.000000000000E+000   0.000000000000E+000   0.000000000000E+000 
  0.000000000000E+000   0.000000000000E+000   0.000000000000E+000   0.000000000000E+000   0.000000000000E+000   1.180000000000E-001   1.325000000000E+000   2.212400000000E+000   3.147600000000E+000   4.123200000000E+000 
  5.137200000000E+000   6.190800000000E+000   7.287200000000E+000   8.428200000000E+000   9.613800000000E+000   1.084100000000E+001   1.210560000000E+001   1.340480000000E+001   1.473700000000E+001   1.610260000000E+001 
  1.750240000000E+001   1.893140000000E+001   2.036860000000E+001   2.176140000000E+001   2.300900000000E+001   2.396060000000E+001   2.444900000000E+001   2.436600000000E+001   2.372600000000E+001   2.265220000000E+001 
  2.130020000000E+001   1.979860000000E+001   1.823400000000E+001   1.665920000000E+001   1.434300000000E+001   1.005880000000E+001   3.466200000000E+000   0.000000000000E+000   0.000000000000E+000   0.000000000000E+000 
  0.000000000000E+000   0.000000000000E+000   0.000000000000E+000   0.000000000000E+000   0.000000000000E+000   4.404000000000E-001   1.820000000000E+000   2.828200000000E+000   3.883800000000E+000   4.979200000000E+000 
  6.113600000000E+000   7.288600000000E+000   8.507600000000E+000   9.774000000000E+000   1.109020000000E+001   1.245880000000E+001   1.388200000000E+001   1.536340000000E+001   1.690880000000E+001   1.852560000000E+001 
  2.021960000000E+001   2.199040000000E+001   2.381780000000E+001   2.564420000000E+001   2.734360000000E+001   2.869500000000E+001   2.939900000000E+001   2.922300000000E+001   2.819480000000E+001   2.657420000000E+001 
  2.464720000000E+001   2.261240000000E+001   2.057920000000E+001   1.860280000000E+001   1.579340000000E+001   1.081620000000E+001   3.547400000000E+000   0.000000000000E+000   0.000000000000E+000   0.000000000000E+000 
  0.000000000000E+000   0.000000000000E+000   0.000000000000E+000   0.000000000000E+000   0.000000000000E+000   7.498000000000E-001   2.325600000000E+000   3.453200000000E+000   4.621000000000E+000   5.825600000000E+000 
  7.067600000000E+000   8.350600000000E+000   9.678200000000E+000   1.105560000000E+001   1.248760000000E+001   1.397980000000E+001   1.553920000000E+001   1.717500000000E+001   1.889860000000E+001   2.072400000000E+001 
  2.266520000000E+001   2.473140000000E+001   2.691840000000E+001   2.918560000000E+001   3.141740000000E+001   3.333940000000E+001   3.442880000000E+001   3.413520000000E+001   3.253060000000E+001   3.020720000000E+001 
  2.764280000000E+001   2.507480000000E+001   2.260220000000E+001   2.026140000000E+001   1.701240000000E+001   1.141480000000E+001   3.539600000000E+000   0.000000000000E+000   0.000000000000E+000   0.000000000000E+000 
  0.000000000000E+000   0.000000000000E+000   0.000000000000E+000   0.000000000000E+000   0.000000000000E+000   1.087600000000E+000   2.866600000000E+000   4.097800000000E+000   5.360800000000E+000   6.657800000000E+000 
  7.991400000000E+000   9.365400000000E+000   1.078460000000E+001   1.225460000000E+001   1.378120000000E+001   1.537220000000E+001   1.703740000000E+001   1.878880000000E+001   2.064240000000E+001   2.261700000000E+001 
  2.473400000000E+001   2.701520000000E+001   2.947740000000E+001   3.211980000000E+001   3.489380000000E+001   3.759480000000E+001   3.947960000000E+001   3.900020000000E+001   3.641320000000E+001   3.322380000000E+001 
  3.003180000000E+001   2.700060000000E+001   2.416900000000E+001   2.153700000000E+001   1.793620000000E+001   1.182500000000E+001   3.433000000000E+000   0.000000000000E+000   0.000000000000E+000   0.000000000000E+000 
  0.000000000000E+000   0.000000000000E+000   0.000000000000E+000   0.000000000000E+000   0.000000000000E+000   1.593200000000E+000   3.470600000000E+000   4.769200000000E+000   6.102200000000E+000   7.470800000000E+000 
  8.877000000000E+000   1.032400000000E+001   1.181560000000E+001   1.335640000000E+001   1.495300000000E+001   1.661340000000E+001   1.834760000000E+001   2.016920000000E+001   2.209500000000E+001   2.414560000000E+001 
  2.634600000000E+001   2.872420000000E+001   3.131140000000E+001   3.413840000000E+001   3.723320000000E+001   4.060520000000E+001   4.408680000000E+001   4.314180000000E+001   3.903480000000E+001   3.513380000000E+001 
  3.153220000000E+001   2.821920000000E+001   2.516940000000E+001   2.235480000000E+001   1.852000000000E+001   1.202640000000E+001   3.220200000000E+000   0.000000000000E+000   0.000000000000E+000   0.000000000000E+000 
  0.000000000000E+000   0.000000000000E+000   0.000000000000E+000   0.000000000000E+000   0.000000000000E+000   2.270000000000E+000   4.131400000000E+000   5.461000000000E+000   6.838200000000E+000   8.257600000000E+000 
  9.717400000000E+000   1.121860000000E+001   1.276220000000E+001   1.435200000000E+001   1.599260000000E+001   1.769060000000E+001   1.945520000000E+001   2.129800000000E+001   2.323400000000E+001   2.528140000000E+001 
  2.746140000000E+001   2.979840000000E+001   3.231700000000E+001   3.503900000000E+001   3.796880000000E+001   4.103640000000E+001   4.366960000000E+001   4.287600000000E+001   3.930860000000E+001   3.553840000000E+001 
  3.196360000000E+001   2.863560000000E+001   2.554760000000E+001   2.267940000000E+001   1.874400000000E+001   1.201140000000E+001   2.896800000000E+000   0.000000000000E+000   0.000000000000E+000   0.000000000000E+000 
  0.000000000000E+000   0.000000000000E+000   0.000000000000E+000   0.000000000000E+000   2.676000000000E-001   2.961200000000E+000   4.808600000000E+000   6.151000000000E+000   7.554600000000E+000   9.008000000000E+000 
  1.050500000000E+001   1.204280000000E+001   1.362000000000E+001   1.523720000000E+001   1.689660000000E+001   1.860180000000E+001   2.035900000000E+001   2.217600000000E+001   2.406300000000E+001   2.603140000000E+001 
  2.809320000000E+001   3.025840000000E+001   3.252940000000E+001   3.488620000000E+001   3.725040000000E+001   3.937620000000E+001   4.060360000000E+001   3.996440000000E+001   3.761260000000E+001   3.455900000000E+001 
  3.137980000000E+001   2.828000000000E+001   2.532380000000E+001   2.252540000000E+001   1.861840000000E+001   1.178520000000E+001   2.462600000000E+000   0.000000000000E+000   0.000000000000E+000   0.000000000000E+000 
  0.000000000000E+000   0.000000000000E+000   0.000000000000E+000   0.000000000000E+000   7.536000000000E-001   3.605800000000E+000   5.461000000000E+000   6.813600000000E+000   8.235000000000E+000   9.711200000000E+000 
  1.123300000000E+001   1.279340000000E+001   1.438800000000E+001   1.601380000000E+001   1.766920000000E+001   1.935460000000E+001   2.107100000000E+001   2.282140000000E+001   2.460880000000E+001   2.643580000000E+001 
  2.830160000000E+001   3.019880000000E+001   3.210380000000E+001   3.396140000000E+001   3.565100000000E+001   3.693380000000E+001   3.742480000000E+001   3.677940000000E+001   3.506400000000E+001   3.268900000000E+001 
  3.002840000000E+001   2.729400000000E+001   2.458720000000E+001   2.195320000000E+001   1.818100000000E+001   1.136880000000E+001   1.921000000000E+000   0.000000000000E+000   0.000000000000E+000   0.000000000000E+000 
  0.000000000000E+000   0.000000000000E+000   0.000000000000E+000   0.000000000000E+000   1.196200000000E+000   4.184800000000E+000   6.062600000000E+000   7.428200000000E+000   8.864800000000E+000   1.035820000000E+001 
  1.189620000000E+001   1.346920000000E+001   1.506860000000E+001   1.668820000000E+001   1.832160000000E+001   1.996520000000E+001   2.161440000000E+001   2.326660000000E+001   2.491700000000E+001   2.655880000000E+001 
  2.817920000000E+001   2.975520000000E+001   3.124580000000E+001   3.257960000000E+001   3.364280000000E+001   3.427200000000E+001   3.428680000000E+001   3.358360000000E+001   3.221820000000E+001   3.036240000000E+001 
  2.819940000000E+001   2.587020000000E+001   2.346900000000E+001   2.105600000000E+001   1.749160000000E+001   1.079700000000E+001   1.284000000000E+000   0.000000000000E+000   0.000000000000E+000   0.000000000000E+000 
  0.000000000000E+000   0.000000000000E+000   0.000000000000E+000   0.000000000000E+000   1.581800000000E+000   4.689800000000E+000   6.598600000000E+000   7.980600000000E+000   9.433400000000E+000   1.094160000000E+001 
  1.249180000000E+001   1.407120000000E+001   1.566760000000E+001   1.727020000000E+001   1.886940000000E+001   2.045560000000E+001   2.201980000000E+001   2.355260000000E+001   2.504320000000E+001   2.647640000000E+001 
  2.783020000000E+001   2.907140000000E+001   3.015040000000E+001   3.099480000000E+001   3.151180000000E+001   3.160500000000E+001   3.122580000000E+001   3.042480000000E+001   2.929240000000E+001   2.785720000000E+001 
  2.614040000000E+001   2.420140000000E+001   2.211360000000E+001   1.994020000000E+001   1.662140000000E+001   1.011760000000E+001   5.784000000000E-001   0.000000000000E+000   0.000000000000E+000   0.000000000000E+000 
  0.000000000000E+000   0.000000000000E+000   0.000000000000E+000   0.000000000000E+000   1.902000000000E+000   5.115200000000E+000   7.060000000000E+000   8.462400000000E+000   9.933600000000E+000   1.145800000000E+001 
  1.301960000000E+001   1.460320000000E+001   1.619300000000E+001   1.777400000000E+001   1.933180000000E+001   2.085220000000E+001   2.232140000000E+001   2.372480000000E+001   2.504640000000E+001   2.626520000000E+001 
  2.735440000000E+001   2.827600000000E+001   2.897900000000E+001   2.939600000000E+001   2.944980000000E+001   2.907540000000E+001   2.828700000000E+001   2.731520000000E+001   2.641120000000E+001   2.537780000000E+001 
  2.405500000000E+001   2.245880000000E+001   2.065500000000E+001   1.871060000000E+001   1.564420000000E+001   9.387200000000E+000   0.000000000000E+000   0.000000000000E+000   0.000000000000E+000   0.000000000000E+000 
  0.000000000000E+000   0.000000000000E+000   0.000000000000E+000   0.000000000000E+000   2.151200000000E+000   5.457200000000E+000   7.441200000000E+000   8.867800000000E+000   1.036120000000E+001   1.190520000000E+001 
  1.348120000000E+001   1.507100000000E+001   1.665520000000E+001   1.821440000000E+001   1.972960000000E+001   2.118240000000E+001   2.255460000000E+001   2.382780000000E+001   2.498200000000E+001   2.599440000000E+001 
  2.683660000000E+001   2.747220000000E+001   2.785400000000E+001   2.792400000000E+001   2.761660000000E+001   2.686860000000E+001   2.564760000000E+001   2.425840000000E+001   2.379280000000E+001   2.314420000000E+001 
  2.212020000000E+001   2.078260000000E+001   1.920560000000E+001   1.745600000000E+001   1.462520000000E+001   8.660800000000E+000   0.000000000000E+000   0.000000000000E+000   0.000000000000E+000   0.000000000000E+000 
  0.000000000000E+000   0.000000000000E+000   0.000000000000E+000   0.000000000000E+000   2.324600000000E+000   5.712000000000E+000   7.738200000000E+000   9.193200000000E+000   1.071400000000E+001   1.228300000000E+001 
  1.387940000000E+001   1.548100000000E+001   1.706500000000E+001   1.860720000000E+001   2.008460000000E+001   2.147380000000E+001   2.275320000000E+001   2.390160000000E+001   2.489800000000E+001   2.572000000000E+001 
  2.634160000000E+001   2.673260000000E+001   2.685560000000E+001   2.666800000000E+001   2.612540000000E+001   2.519080000000E+001   2.386860000000E+001   2.250660000000E+001   2.197020000000E+001   2.137320000000E+001 
  2.046320000000E+001   1.926840000000E+001   1.784300000000E+001   1.624200000000E+001   1.361460000000E+001   7.977000000000E+000   0.000000000000E+000   0.000000000000E+000   0.000000000000E+000   0.000000000000E+000 
  0.000000000000E+000   0.000000000000E+000   0.000000000000E+000   0.000000000000E+000   2.418800000000E+000   5.875800000000E+000   7.947000000000E+000   9.435000000000E+000   1.098980000000E+001   1.259160000000E+001 
  1.421680000000E+001   1.583980000000E+001   1.743320000000E+001   1.896820000000E+001   2.041680000000E+001   2.175160000000E+001   2.294720000000E+001   2.398120000000E+001   2.483300000000E+001   2.548320000000E+001 
  2.591220000000E+001   2.609900000000E+001   2.602040000000E+001   2.565380000000E+001   2.498460000000E+001   2.402380000000E+001   2.285920000000E+001   2.173940000000E+001   2.087320000000E+001   2.006380000000E+001 
  1.910680000000E+001   1.795000000000E+001   1.660540000000E+001   1.510580000000E+001   1.264460000000E+001   7.348600000000E+000   0.000000000000E+000   0.000000000000E+000   0.000000000000E+000   0.000000000000E+000 
  0.000000000000E+000   0.000000000000E+000   0.000000000000E+000   0.000000000000E+000   2.430200000000E+000   5.944400000000E+000   8.063400000000E+000   9.589800000000E+000   1.118640000000E+001   1.283080000000E+001 
  1.449640000000E+001   1.615360000000E+001   1.777000000000E+001   1.931160000000E+001   2.074520000000E+001   2.203840000000E+001   2.316260000000E+001   2.409440000000E+001   2.481520000000E+001   2.531100000000E+001 
  2.557080000000E+001   2.558540000000E+001   2.534740000000E+001   2.485340000000E+001   2.411280000000E+001   2.316240000000E+001   2.208640000000E+001   2.101060000000E+001   2.001140000000E+001   1.903480000000E+001 
  1.798500000000E+001   1.680860000000E+001   1.549560000000E+001   1.405980000000E+001   1.172900000000E+001   6.767200000000E+000   0.000000000000E+000   0.000000000000E+000   0.000000000000E+000   0.000000000000E+000 
  0.000000000000E+000   0.000000000000E+000   0.000000000000E+000   0.000000000000E+000   2.356600000000E+000   5.912800000000E+000   8.082600000000E+000   9.653200000000E+000   1.130040000000E+001   1.299900000000E+001 
  1.471900000000E+001   1.642620000000E+001   1.808280000000E+001   1.964940000000E+001   2.108600000000E+001   2.235420000000E+001   2.342120000000E+001   2.426280000000E+001   2.486380000000E+001   2.521760000000E+001 
  2.532400000000E+001   2.518680000000E+001   2.481300000000E+001   2.421500000000E+001   2.341600000000E+001   2.245640000000E+001   2.139860000000E+001   2.031100000000E+001   1.923200000000E+001   1.814740000000E+001 
  1.701540000000E+001   1.580200000000E+001   1.449460000000E+001   1.309720000000E+001   1.086860000000E+001   6.215000000000E+000   0.000000000000E+000   0.000000000000E+000   0.000000000000E+000   0.000000000000E+000 
  0.000000000000E+000   0.000000000000E+000   0.000000000000E+000   0.000000000000E+000   2.196200000000E+000   5.775600000000E+000   7.998400000000E+000   9.619800000000E+000   1.132760000000E+001   1.309340000000E+001 
  1.488340000000E+001   1.665900000000E+001   1.837700000000E+001   1.999100000000E+001   2.145260000000E+001   2.271580000000E+001   2.374120000000E+001   2.450320000000E+001   2.499060000000E+001   2.520740000000E+001 
  2.516640000000E+001   2.488520000000E+001   2.438460000000E+001   2.368740000000E+001   2.282320000000E+001   2.182960000000E+001   2.075120000000E+001   1.963000000000E+001   1.849040000000E+001   1.733180000000E+001 
  1.613700000000E+001   1.488780000000E+001   1.357580000000E+001   1.220280000000E+001   1.005400000000E+001   5.675200000000E+000   0.000000000000E+000   0.000000000000E+000   0.000000000000E+000   0.000000000000E+000 
  0.000000000000E+000   0.000000000000E+000   0.000000000000E+000   0.000000000000E+000   1.948400000000E+000   5.526200000000E+000   7.804000000000E+000   9.483000000000E+000   1.126220000000E+001   1.310900000000E+001 
  1.498580000000E+001   1.684960000000E+001   1.865260000000E+001   2.034060000000E+001   2.185480000000E+001   2.313700000000E+001   2.413780000000E+001   2.482700000000E+001   2.520040000000E+001   2.527560000000E+001 
  2.508280000000E+001   2.465560000000E+001   2.402620000000E+001   2.322600000000E+001   2.228600000000E+001   2.123960000000E+001   2.012000000000E+001   1.895600000000E+001   1.776540000000E+001   1.655200000000E+001 
  1.531040000000E+001   1.403240000000E+001   1.271380000000E+001   1.135760000000E+001   9.273400000000E+000   5.133400000000E+000   0.000000000000E+000   0.000000000000E+000   0.000000000000E+000   0.000000000000E+000 
  0.000000000000E+000   0.000000000000E+000   0.000000000000E+000   0.000000000000E+000   1.614800000000E+000   5.158000000000E+000   7.491800000000E+000   9.236000000000E+000   1.109720000000E+001   1.303860000000E+001 
  1.501800000000E+001   1.699020000000E+001   1.890280000000E+001   2.069540000000E+001   2.229620000000E+001   2.362880000000E+001   2.462380000000E+001   2.524280000000E+001   2.549080000000E+001   2.540820000000E+001 
  2.504940000000E+001   2.446580000000E+001   2.370120000000E+001   2.279120000000E+001   2.176700000000E+001   2.065680000000E+001   1.948640000000E+001   1.827700000000E+001   1.704180000000E+001   1.578640000000E+001 
  1.451020000000E+001   1.321080000000E+001   1.188780000000E+001   1.054460000000E+001   8.513200000000E+000   4.580000000000E+000   0.000000000000E+000   0.000000000000E+000   0.000000000000E+000   0.000000000000E+000 
  0.000000000000E+000   0.000000000000E+000   0.000000000000E+000   0.000000000000E+000   1.200800000000E+000   4.664000000000E+000   7.054600000000E+000   8.872600000000E+000   1.082720000000E+001   1.287460000000E+001 
  1.496960000000E+001   1.706560000000E+001   1.911060000000E+001   2.104020000000E+001   2.277040000000E+001   2.419600000000E+001   2.521060000000E+001   2.575440000000E+001   2.584960000000E+001   2.557780000000E+001 
  2.502980000000E+001   2.427680000000E+001   2.337040000000E+001   2.234660000000E+001   2.123420000000E+001   2.005640000000E+001   1.883320000000E+001   1.758020000000E+001   1.630740000000E+001   1.502020000000E+001 
  1.371960000000E+001   1.240620000000E+001   1.108120000000E+001   9.750000000000E+000   7.762200000000E+000   4.007400000000E+000   0.000000000000E+000   0.000000000000E+000   0.000000000000E+000   0.000000000000E+000 
  0.000000000000E+000   0.000000000000E+000   0.000000000000E+000   0.000000000000E+000   7.184000000000E-001   4.037600000000E+000   6.487600000000E+000   8.391200000000E+000   1.045060000000E+001   1.261180000000E+001 
  1.482720000000E+001   1.705320000000E+001   1.924360000000E+001   2.133880000000E+001   2.324900000000E+001   2.483320000000E+001   2.590840000000E+001   2.635740000000E+001   2.624360000000E+001   2.573440000000E+001 
  2.497080000000E+001   2.403940000000E+001   2.299060000000E+001   2.185600000000E+001   2.065860000000E+001   1.941640000000E+001   1.814420000000E+001   1.685360000000E+001   1.555180000000E+001   1.424260000000E+001 
  1.292740000000E+001   1.160700000000E+001   1.028400000000E+001   8.963800000000E+000   7.012200000000E+000   3.410600000000E+000   0.000000000000E+000   0.000000000000E+000   0.000000000000E+000   0.000000000000E+000 
  0.000000000000E+000   0.000000000000E+000   0.000000000000E+000   0.000000000000E+000   1.898000000000E-001   3.273200000000E+000   5.792600000000E+000   7.800400000000E+000   9.976000000000E+000   1.225140000000E+001 
  1.457940000000E+001   1.692340000000E+001   1.925080000000E+001   2.151920000000E+001   2.365560000000E+001   2.550140000000E+001   2.672580000000E+001   2.702340000000E+001   2.659240000000E+001   2.578880000000E+001 