# Name File for MT3DMS created on 6/7/2012 by ModelMuse
LIST 16 ImportedP1_Case1d.mls
FTL 10 ImportedP1_Case1d.ftl
DATA 17 ImportedP1_Case1d.cnf
BTN 1 ImportedP1_Case1d.btn
DATA(BINARY) 201 ImportedP1_Case1d_Comp1.ucn
DATA 601 ImportedP1_Case1d_Comp1._mas
DATA 401 ImportedP1_Case1d_Comp1.mto
ADV 2 ImportedP1_Case1d.adv
DSP 3 ImportedP1_Case1d.dsp
SSM 4 ImportedP1_Case1d.ssm
RCT 8 ImportedP1_Case1d.rct
GCG 9 ImportedP1_Case1d.gcg
