# Name File for MT3DMS created on 10/11/2018 by ModelMuse
LIST 16 ..\..\output\output.ImportedP2_nonequilibrium_MT3DMS\ImportedP2_nonequilibrium.mls
FTL 10 ..\..\output\output.ImportedP2_nonequilibrium\ImportedP2_nonequilibrium.ftl
DATA 17 ..\..\output\output.ImportedP2_nonequilibrium_MT3DMS\ImportedP2_nonequilibrium.cnf
BTN 1 ..\..\model\model.ImportedP2_nonequilibrium_MT3DMS\ImportedP2_nonequilibrium.btn
DATA(BINARY) 201 ..\..\output\output.ImportedP2_nonequilibrium_MT3DMS\ImportedP2_nonequilibrium_Comp1.ucn
DATA(BINARY) 301 ..\..\output\output.ImportedP2_nonequilibrium_MT3DMS\ImportedP2_nonequilibrium_Comp1_S.ucn
DATA 601 ..\..\output\output.ImportedP2_nonequilibrium_MT3DMS\ImportedP2_nonequilibrium_Comp1._mas
DATA 401 ..\..\output\output.ImportedP2_nonequilibrium_MT3DMS\ImportedP2_nonequilibrium_Comp1.mto
ADV 2 ..\..\model\model.ImportedP2_nonequilibrium_MT3DMS\ImportedP2_nonequilibrium.adv
DSP 3 ..\..\model\model.ImportedP2_nonequilibrium_MT3DMS\ImportedP2_nonequilibrium.dsp
SSM 4 ..\..\model\model.ImportedP2_nonequilibrium_MT3DMS\ImportedP2_nonequilibrium.ssm
RCT 8 ..\..\model\model.ImportedP2_nonequilibrium_MT3DMS\ImportedP2_nonequilibrium.rct
GCG 9 ..\..\model\model.ImportedP2_nonequilibrium_MT3DMS\ImportedP2_nonequilibrium.gcg
