# Name File for MODFLOW created on 5/18/2019 by ModelMuse Version 3.10.0.60
LIST             11 ImportedP2_nonequilibrium.lst REPLACE
DATA(BINARY)      9 ImportedP2_nonequilibrium.cbc REPLACE
DIS              12 ImportedP2_nonequilibrium.dis OLD
BAS6             13 ImportedP2_nonequilibrium.bas OLD
OC               39 ImportedP2_nonequilibrium.oc OLD
DATA             37 ImportedP2_nonequilibrium.fhd REPLACE
DATA             38 ImportedP2_nonequilibrium.fdn REPLACE
SIP              35 ImportedP2_nonequilibrium.sip OLD
BCF6             64 ImportedP2_nonequilibrium.bcf OLD
LMT6            135 ImportedP2_nonequilibrium.lmt OLD
CHD              17 ImportedP2_nonequilibrium.chd OLD
