# Discretization File created on 1/20/2023 by ModelMuse version 5.1.1.8.
# MT3DMS Benchmark Problem #8
# Sudicky 1989 Waterloo test problem
# Upper left corner: (0, 0)
# Lower left corner: (0, -5)
# Upper right corner: (250, 0)
# Lower right corner: (250, -5)
# Grid angle (in degrees counterclockwise): 0
    27     1    50     2     5     2 # NLAY, NROW, NCOL, NPER, ITMUNI, LENUNI
     0     0     0     0     0     0     0     0     0     0     0     0     0     0     0     0     0     0     0     0     0     0     0     0     0     0     0 # LAYCB
CONSTANT     5.000000000000E+000  # DELR
CONSTANT     5.000000000000E+000  # DELC
CONSTANT     6.750000000000E+000  # TOP
CONSTANT     6.500000000000E+000  # BOTM, Layer 1
CONSTANT     6.250000000000E+000  # BOTM, Layer 2
CONSTANT     6.000000000000E+000  # BOTM, Layer 3
CONSTANT     5.750000000000E+000  # BOTM, Layer 4
CONSTANT     5.500000000000E+000  # BOTM, Layer 5
CONSTANT     5.250000000000E+000  # BOTM, Layer 6
CONSTANT     5.000000000000E+000  # BOTM, Layer 7
CONSTANT     4.750000000000E+000  # BOTM, Layer 8
CONSTANT     4.500000000000E+000  # BOTM, Layer 9
CONSTANT     4.250000000000E+000  # BOTM, Layer 10
CONSTANT     4.000000000000E+000  # BOTM, Layer 11
CONSTANT     3.750000000000E+000  # BOTM, Layer 12
CONSTANT     3.500000000000E+000  # BOTM, Layer 13
CONSTANT     3.250000000000E+000  # BOTM, Layer 14
CONSTANT     3.000000000000E+000  # BOTM, Layer 15
CONSTANT     2.750000000000E+000  # BOTM, Layer 16
CONSTANT     2.500000000000E+000  # BOTM, Layer 17
CONSTANT     2.250000000000E+000  # BOTM, Layer 18
CONSTANT     2.000000000000E+000  # BOTM, Layer 19
CONSTANT     1.750000000000E+000  # BOTM, Layer 20
CONSTANT     1.500000000000E+000  # BOTM, Layer 21
CONSTANT     1.250000000000E+000  # BOTM, Layer 22
CONSTANT     1.000000000000E+000  # BOTM, Layer 23
CONSTANT     7.500000000000E-001  # BOTM, Layer 24
CONSTANT     5.000000000000E-001  # BOTM, Layer 25
CONSTANT     2.500000000000E-001  # BOTM, Layer 26
CONSTANT     0.000000000000E+000  # BOTM, Layer 27
  5.000000000000E+000      1  1.000000000000E+000  SS # PERLEN NSTP TSMULT Ss/tr (Stress period 1) Time =  0.000000000000E+000  -  5.000000000000E+000 
  1.500000000000E+001      1  1.000000000000E+000  TR # PERLEN NSTP TSMULT Ss/tr (Stress period 2) Time =  5.000000000000E+000  -  2.000000000000E+001 
