# Name File for MT3DMS created on 10/11/2018 by ModelMuse
LIST 16 ..\..\output\output.ImportedP1_Case1b_MT3DMS\ImportedP1_Case1b.mls
FTL 10 ..\..\output\output.ImportedP1_Case1b\ImportedP1_Case1b.ftl
DATA 17 ..\..\output\output.ImportedP1_Case1b_MT3DMS\ImportedP1_Case1b.cnf
BTN 1 ..\..\model\model.ImportedP1_Case1b_MT3DMS\ImportedP1_Case1b.btn
DATA(BINARY) 201 ..\..\output\output.ImportedP1_Case1b_MT3DMS\ImportedP1_Case1b_Comp1.ucn
DATA 601 ..\..\output\output.ImportedP1_Case1b_MT3DMS\ImportedP1_Case1b_Comp1._mas
DATA 401 ..\..\output\output.ImportedP1_Case1b_MT3DMS\ImportedP1_Case1b_Comp1.mto
ADV 2 ..\..\model\model.ImportedP1_Case1b_MT3DMS\ImportedP1_Case1b.adv
DSP 3 ..\..\model\model.ImportedP1_Case1b_MT3DMS\ImportedP1_Case1b.dsp
SSM 4 ..\..\model\model.ImportedP1_Case1b_MT3DMS\ImportedP1_Case1b.ssm
GCG 9 ..\..\model\model.ImportedP1_Case1b_MT3DMS\ImportedP1_Case1b.gcg
