# MT3DMS Benchmark Test Problem No. 9
# TRANSPORT IN 2-D FLOW FIELD WITH A LOW-K ZONE
# Basic Package file created on 6/8/2020 by ModelMuse version 4.2.0.17.
# Number of active cells = 252.
FREE  # OPTIONS
CONSTANT        1 # IBOUND Layer 1
  9.999900000000E+002  # HNOFLO
INTERNAL 1.0 (FREE)       12 # STRT Layer 1
  2.500000000000E+002   2.500000000000E+002   2.500000000000E+002   2.500000000000E+002   2.500000000000E+002   2.500000000000E+002   2.500000000000E+002   2.500000000000E+002   2.500000000000E+002   2.500000000000E+002 
  2.500000000000E+002   2.500000000000E+002   2.500000000000E+002   2.500000000000E+002 
  2.500000000000E+002   2.500000000000E+002   2.500000000000E+002   2.500000000000E+002   2.500000000000E+002   2.500000000000E+002   2.500000000000E+002   2.500000000000E+002   2.500000000000E+002   2.500000000000E+002 
  2.500000000000E+002   2.500000000000E+002   2.500000000000E+002   2.500000000000E+002 
  2.500000000000E+002   2.500000000000E+002   2.500000000000E+002   2.500000000000E+002   2.500000000000E+002   2.500000000000E+002   2.500000000000E+002   2.500000000000E+002   2.500000000000E+002   2.500000000000E+002 
  2.500000000000E+002   2.500000000000E+002   2.500000000000E+002   2.500000000000E+002 
  2.500000000000E+002   2.500000000000E+002   2.500000000000E+002   2.500000000000E+002   2.500000000000E+002   2.500000000000E+002   2.500000000000E+002   2.500000000000E+002   2.500000000000E+002   2.500000000000E+002 
  2.500000000000E+002   2.500000000000E+002   2.500000000000E+002   2.500000000000E+002 
  2.500000000000E+002   2.500000000000E+002   2.500000000000E+002   2.500000000000E+002   2.500000000000E+002   2.500000000000E+002   2.500000000000E+002   2.500000000000E+002   2.500000000000E+002   2.500000000000E+002 
  2.500000000000E+002   2.500000000000E+002   2.500000000000E+002   2.500000000000E+002 
  2.500000000000E+002   2.500000000000E+002   2.500000000000E+002   2.500000000000E+002   2.500000000000E+002   2.500000000000E+002   2.500000000000E+002   2.500000000000E+002   2.500000000000E+002   2.500000000000E+002 
  2.500000000000E+002   2.500000000000E+002   2.500000000000E+002   2.500000000000E+002 
  2.500000000000E+002   2.500000000000E+002   2.500000000000E+002   2.500000000000E+002   2.500000000000E+002   2.500000000000E+002   2.500000000000E+002   2.500000000000E+002   2.500000000000E+002   2.500000000000E+002 
  2.500000000000E+002   2.500000000000E+002   2.500000000000E+002   2.500000000000E+002 
  2.500000000000E+002   2.500000000000E+002   2.500000000000E+002   2.500000000000E+002   2.500000000000E+002   2.500000000000E+002   2.500000000000E+002   2.500000000000E+002   2.500000000000E+002   2.500000000000E+002 
  2.500000000000E+002   2.500000000000E+002   2.500000000000E+002   2.500000000000E+002 
  2.500000000000E+002   2.500000000000E+002   2.500000000000E+002   2.500000000000E+002   2.500000000000E+002   2.500000000000E+002   2.500000000000E+002   2.500000000000E+002   2.500000000000E+002   2.500000000000E+002 
  2.500000000000E+002   2.500000000000E+002   2.500000000000E+002   2.500000000000E+002 
  2.500000000000E+002   2.500000000000E+002   2.500000000000E+002   2.500000000000E+002   2.500000000000E+002   2.500000000000E+002   2.500000000000E+002   2.500000000000E+002   2.500000000000E+002   2.500000000000E+002 
  2.500000000000E+002   2.500000000000E+002   2.500000000000E+002   2.500000000000E+002 
  2.500000000000E+002   2.500000000000E+002   2.500000000000E+002   2.500000000000E+002   2.500000000000E+002   2.500000000000E+002   2.500000000000E+002   2.500000000000E+002   2.500000000000E+002   2.500000000000E+002 
  2.500000000000E+002   2.500000000000E+002   2.500000000000E+002   2.500000000000E+002 
  2.500000000000E+002   2.500000000000E+002   2.500000000000E+002   2.500000000000E+002   2.500000000000E+002   2.500000000000E+002   2.500000000000E+002   2.500000000000E+002   2.500000000000E+002   2.500000000000E+002 
  2.500000000000E+002   2.500000000000E+002   2.500000000000E+002   2.500000000000E+002 
  2.500000000000E+002   2.500000000000E+002   2.500000000000E+002   2.500000000000E+002   2.500000000000E+002   2.500000000000E+002   2.500000000000E+002   2.500000000000E+002   2.500000000000E+002   2.500000000000E+002 
  2.500000000000E+002   2.500000000000E+002   2.500000000000E+002   2.500000000000E+002 
  2.500000000000E+002   2.500000000000E+002   2.500000000000E+002   2.500000000000E+002   2.500000000000E+002   2.500000000000E+002   2.500000000000E+002   2.500000000000E+002   2.500000000000E+002   2.500000000000E+002 
  2.500000000000E+002   2.500000000000E+002   2.500000000000E+002   2.500000000000E+002 
  2.500000000000E+002   2.500000000000E+002   2.500000000000E+002   2.500000000000E+002   2.500000000000E+002   2.500000000000E+002   2.500000000000E+002   2.500000000000E+002   2.500000000000E+002   2.500000000000E+002 
  2.500000000000E+002   2.500000000000E+002   2.500000000000E+002   2.500000000000E+002 
  2.500000000000E+002   2.500000000000E+002   2.500000000000E+002   2.500000000000E+002   2.500000000000E+002   2.500000000000E+002   2.500000000000E+002   2.500000000000E+002   2.500000000000E+002   2.500000000000E+002 
  2.500000000000E+002   2.500000000000E+002   2.500000000000E+002   2.500000000000E+002 
  2.500000000000E+002   2.500000000000E+002   2.500000000000E+002   2.500000000000E+002   2.500000000000E+002   2.500000000000E+002   2.500000000000E+002   2.500000000000E+002   2.500000000000E+002   2.500000000000E+002 
  2.500000000000E+002   2.500000000000E+002   2.500000000000E+002   2.500000000000E+002 
  2.000000000000E+001   2.250000000000E+001   2.500000000000E+001   2.750000000000E+001   3.000000000000E+001   3.250000000000E+001   3.500000000000E+001   3.750000000000E+001   4.000000000000E+001   4.250000000000E+001 
  4.500000000000E+001   4.750000000000E+001   5.000000000000E+001   5.250000000000E+001 
