# Name File for MT3DMS created on 6/7/2012 by ModelMuse
LIST 16 ImportedP9.mls
FTL 10 ImportedP9.ftl
DATA 17 ImportedP9.cnf
BTN 1 ImportedP9.btn
DATA(BINARY) 201 ImportedP9_Comp1.ucn
DATA 601 ImportedP9_Comp1._mas
DATA 401 ImportedP9_Comp1.mto
ADV 2 ImportedP9.adv
DSP 3 ImportedP9.dsp
SSM 4 ImportedP9.ssm
GCG 9 ImportedP9.gcg
