# Name File for MODFLOW created on 5/18/2019 by ModelMuse Version 3.10.0.60
LIST             11 ..\..\output\output.ImportedP1_Case1b\ImportedP1_Case1b.lst REPLACE
DATA(BINARY)      9 ..\..\output\output.ImportedP1_Case1b\ImportedP1_Case1b.cbc REPLACE
DIS              12 ..\..\model\model.ImportedP1_Case1b\ImportedP1_Case1b.dis OLD
BAS6             13 ..\..\model\model.ImportedP1_Case1b\ImportedP1_Case1b.bas OLD
OC               39 ..\..\model\model.ImportedP1_Case1b\ImportedP1_Case1b.oc OLD
DATA             37 ..\..\output\output.ImportedP1_Case1b\ImportedP1_Case1b.fhd REPLACE
DATA             38 ..\..\output\output.ImportedP1_Case1b\ImportedP1_Case1b.fdn REPLACE
PCG              18 ..\..\model\model.ImportedP1_Case1b\ImportedP1_Case1b.pcg OLD
BCF6             64 ..\..\model\model.ImportedP1_Case1b\ImportedP1_Case1b.bcf OLD
LMT6            135 ..\..\model\model.ImportedP1_Case1b\ImportedP1_Case1b.lmt OLD
CHD              17 ..\..\model\model.ImportedP1_Case1b\ImportedP1_Case1b.chd OLD
