# Name File for MODFLOW created on 5/18/2019 by ModelMuse Version 3.10.0.60
LIST             11 ImportedP4.lst REPLACE
DATA(BINARY)      9 ImportedP4.cbc REPLACE
DIS              12 ImportedP4.dis OLD
BAS6             13 ImportedP4.bas OLD
OC               39 ImportedP4.oc OLD
DATA             37 ImportedP4.fhd REPLACE
DATA             38 ImportedP4.fdn REPLACE
SIP              35 ImportedP4.sip OLD
BCF6             64 ImportedP4.bcf OLD
LMT6            135 ImportedP4.lmt OLD
CHD              17 ImportedP4.chd OLD
WEL              20 ImportedP4.wel OLD
