# Name File for MT3DMS created on 10/11/2018 by ModelMuse
LIST 16 ..\..\output\output.ImportedP1_Case1a_MT3DMS\ImportedP1_Case1a.mls
FTL 10 ..\..\output\output.ImportedP1_Case1a\ImportedP1_Case1a.ftl
DATA 17 ..\..\output\output.ImportedP1_Case1a_MT3DMS\ImportedP1_Case1a.cnf
BTN 1 ..\..\model\model.ImportedP1_Case1a_MT3DMS\ImportedP1_Case1a.btn
DATA(BINARY) 201 ..\..\output\output.ImportedP1_Case1a_MT3DMS\ImportedP1_Case1a_Comp1.ucn
DATA 601 ..\..\output\output.ImportedP1_Case1a_MT3DMS\ImportedP1_Case1a_Comp1._mas
DATA 401 ..\..\output\output.ImportedP1_Case1a_MT3DMS\ImportedP1_Case1a_Comp1.mto
ADV 2 ..\..\model\model.ImportedP1_Case1a_MT3DMS\ImportedP1_Case1a.adv
SSM 4 ..\..\model\model.ImportedP1_Case1a_MT3DMS\ImportedP1_Case1a.ssm
GCG 9 ..\..\model\model.ImportedP1_Case1a_MT3DMS\ImportedP1_Case1a.gcg
