# Name File for MT3DMS created on 10/11/2018 by ModelMuse
LIST 16 ..\..\output\output.ImportMt3dmsTob_MT3DMS\ImportMt3dmsTob.mls
FTL 10 ..\..\output\output.ImportMt3dmsTob\ImportMt3dmsTob.ftl
DATA 17 ..\..\output\output.ImportMt3dmsTob_MT3DMS\ImportMt3dmsTob.cnf
BTN 1 ..\..\model\model.ImportMt3dmsTob_MT3DMS\ImportMt3dmsTob.btn
DATA(BINARY) 201 ..\..\output\output.ImportMt3dmsTob_MT3DMS\ImportMt3dmsTob_Chem1.ucn
DATA 601 ..\..\output\output.ImportMt3dmsTob_MT3DMS\ImportMt3dmsTob_Chem1._mas
DATA 401 ..\..\output\output.ImportMt3dmsTob_MT3DMS\ImportMt3dmsTob_Chem1.mto
ADV 2 ..\..\model\model.ImportMt3dmsTob_MT3DMS\ImportMt3dmsTob.adv
DSP 3 ..\..\model\model.ImportMt3dmsTob_MT3DMS\ImportMt3dmsTob.dsp
SSM 4 ..\..\model\model.ImportMt3dmsTob_MT3DMS\ImportMt3dmsTob.ssm
GCG 9 ..\..\model\model.ImportMt3dmsTob_MT3DMS\ImportMt3dmsTob.gcg
TOB 7 ..\..\model\model.ImportMt3dmsTob_MT3DMS\ImportMt3dmsTob.tob
DATA 21 ..\..\output\output.ImportMt3dmsTob_MT3DMS\ImportMt3dmsTob.ocn
DATA 22 ..\..\output\output.ImportMt3dmsTob_MT3DMS\ImportMt3dmsTob.mfx
DATA(BINARY) 23 ..\..\output\output.ImportMt3dmsTob_MT3DMS\ImportMt3dmsTob.pst
