# Name File for MT3DMS created on 10/11/2018 by ModelMuse
LIST 16 ..\..\output\output.ImportMt3dmsZeroth_MT3DMS\ImportMt3dmsZeroth.mls
FTL 10 ..\..\output\output.ImportMt3dmsZeroth\ImportMt3dmsZeroth.ftl
DATA 17 ..\..\output\output.ImportMt3dmsZeroth_MT3DMS\ImportMt3dmsZeroth.cnf
BTN 1 ..\..\model\model.ImportMt3dmsZeroth_MT3DMS\ImportMt3dmsZeroth.btn
DATA(BINARY) 201 ..\..\output\output.ImportMt3dmsZeroth_MT3DMS\ImportMt3dmsZeroth_Chem1.ucn
DATA 601 ..\..\output\output.ImportMt3dmsZeroth_MT3DMS\ImportMt3dmsZeroth_Chem1._mas
DATA 401 ..\..\output\output.ImportMt3dmsZeroth_MT3DMS\ImportMt3dmsZeroth_Chem1.mto
ADV 2 ..\..\model\model.ImportMt3dmsZeroth_MT3DMS\ImportMt3dmsZeroth.adv
DSP 3 ..\..\model\model.ImportMt3dmsZeroth_MT3DMS\ImportMt3dmsZeroth.dsp
SSM 4 ..\..\model\model.ImportMt3dmsZeroth_MT3DMS\ImportMt3dmsZeroth.ssm
RCT 8 ..\..\model\model.ImportMt3dmsZeroth_MT3DMS\ImportMt3dmsZeroth.rct
GCG 9 ..\..\model\model.ImportMt3dmsZeroth_MT3DMS\ImportMt3dmsZeroth.gcg
