# Name File for MT3DMS created on 10/11/2018 by ModelMuse
LIST 16 ..\..\output\output.ImportedP5_MT3DMS\ImportedP5.mls
FTL 10 ..\..\output\output.ImportedP5\ImportedP5.ftl
DATA 17 ..\..\output\output.ImportedP5_MT3DMS\ImportedP5.cnf
BTN 1 ..\..\model\model.ImportedP5_MT3DMS\ImportedP5.btn
DATA(BINARY) 201 ..\..\output\output.ImportedP5_MT3DMS\ImportedP5_Comp1.ucn
DATA 601 ..\..\output\output.ImportedP5_MT3DMS\ImportedP5_Comp1._mas
DATA 401 ..\..\output\output.ImportedP5_MT3DMS\ImportedP5_Comp1.mto
ADV 2 ..\..\model\model.ImportedP5_MT3DMS\ImportedP5.adv
DSP 3 ..\..\model\model.ImportedP5_MT3DMS\ImportedP5.dsp
SSM 4 ..\..\model\model.ImportedP5_MT3DMS\ImportedP5.ssm
GCG 9 ..\..\model\model.ImportedP5_MT3DMS\ImportedP5.gcg
