# Discretization File created on 1/20/2023 by ModelMuse version 5.1.1.8.
# MT3DMS benchmark test problem #6
# transport in 2-D radial flow field during an injection/withdrawl cycle
# Upper left corner: (0, 0)
# Lower left corner: (0, -27900)
# Upper right corner: (27900, 0)
# Lower right corner: (27900, -27900)
# Grid angle (in degrees counterclockwise): 0
     1    31    31     2     4     1 # NLAY, NROW, NCOL, NPER, ITMUNI, LENUNI
     0 # LAYCB
CONSTANT     9.000000000000E+002  # DELR
CONSTANT     9.000000000000E+002  # DELC
CONSTANT     2.000000000000E+001  # TOP
CONSTANT     0.000000000000E+000  # BOTM, Layer 1
  9.125000000000E+002      1  1.000000000000E+000  TR # PERLEN NSTP TSMULT Ss/tr (Stress period 1) Time =  0.000000000000E+000  -  9.125000000000E+002 
  2.737500000000E+003      1  1.000000000000E+000  TR # PERLEN NSTP TSMULT Ss/tr (Stress period 2) Time =  9.125000000000E+002  -  3.650000000000E+003 
