# Name File for MODFLOW created on 3/22/2024 by ModelMuse Version 5.2.0.0
LIST             11 InactiveChdTestMf2005.lst REPLACE
DATA(BINARY)      9 InactiveChdTestMf2005.cbc REPLACE
DIS              12 InactiveChdTestMf2005.dis OLD
BAS6             13 InactiveChdTestMf2005.bas OLD
OC               39 InactiveChdTestMf2005.oc OLD
DATA             37 InactiveChdTestMf2005.fhd REPLACE
DATA             38 InactiveChdTestMf2005.fdn REPLACE
PCG              18 InactiveChdTestMf2005.pcg OLD
LPF              14 InactiveChdTestMf2005.lpf OLD
CHD              17 InactiveChdTestMf2005.chd OLD
PVAL             52 InactiveChdTestMf2005.pval OLD
