# Name File for MODFLOW created on 3/22/2024 by ModelMuse Version 5.2.0.0
LIST             11 ..\..\output\output.InactiveChdTestMf2005\InactiveChdTestMf2005.lst REPLACE
DATA(BINARY)      9 ..\..\output\output.InactiveChdTestMf2005\InactiveChdTestMf2005.cbc REPLACE
DIS              12 ..\..\model\model.InactiveChdTestMf2005\InactiveChdTestMf2005.dis OLD
BAS6             13 ..\..\model\model.InactiveChdTestMf2005\InactiveChdTestMf2005.bas OLD
OC               39 ..\..\model\model.InactiveChdTestMf2005\InactiveChdTestMf2005.oc OLD
DATA             37 ..\..\output\output.InactiveChdTestMf2005\InactiveChdTestMf2005.fhd REPLACE
DATA             38 ..\..\output\output.InactiveChdTestMf2005\InactiveChdTestMf2005.fdn REPLACE
PCG              18 ..\..\model\model.InactiveChdTestMf2005\InactiveChdTestMf2005.pcg OLD
LPF              14 ..\..\model\model.InactiveChdTestMf2005\InactiveChdTestMf2005.lpf OLD
CHD              17 ..\..\model\model.InactiveChdTestMf2005\InactiveChdTestMf2005.chd OLD
PVAL             52 ..\..\model\model.InactiveChdTestMf2005\InactiveChdTestMf2005.pval OLD
