# Name File for MODFLOW created on 2/1/2017 by ModelMuse Version 3.8.1.27
LIST             11 ..\..\output\output.interptest\interptest.lst REPLACE
DATA(BINARY)      9 ..\..\output\output.interptest\interptest.cbc REPLACE
DIS              12 ..\..\model\model.interptest\interptest.dis OLD
BAS6             13 ..\..\model\model.interptest\interptest.bas OLD
OC               39 ..\..\model\model.interptest\interptest.oc OLD
DATA             37 ..\..\output\output.interptest\interptest.fhd REPLACE
DATA             38 ..\..\output\output.interptest\interptest.fdn REPLACE
PCG              18 ..\..\model\model.interptest\interptest.pcg OLD
LPF              14 ..\..\model\model.interptest\interptest.lpf OLD
