# Name File for MODFLOW created on 12/14/2015 by ModelMuse
LIST             11 InterpolatedVerValRotated.lst REPLACE
DATA(BINARY)      9 InterpolatedVerValRotated.cbc REPLACE
DIS              12 InterpolatedVerValRotated.dis OLD
BAS6             13 InterpolatedVerValRotated.bas OLD
OC               39 InterpolatedVerValRotated.oc OLD
DATA             37 InterpolatedVerValRotated.fhd REPLACE
DATA             38 InterpolatedVerValRotated.fdn REPLACE
PCG              18 InterpolatedVerValRotated.pcg OLD
LPF              14 InterpolatedVerValRotated.lpf OLD
