# Name File for MODFLOW created on 2/1/2017 by ModelMuse Version 3.8.1.27
LIST             11 ..\..\output\output.InterpolatedVerValRotated\InterpolatedVerValRotated.lst REPLACE
DATA(BINARY)      9 ..\..\output\output.InterpolatedVerValRotated\InterpolatedVerValRotated.cbc REPLACE
DIS              12 ..\..\model\model.InterpolatedVerValRotated\InterpolatedVerValRotated.dis OLD
BAS6             13 ..\..\model\model.InterpolatedVerValRotated\InterpolatedVerValRotated.bas OLD
OC               39 ..\..\model\model.InterpolatedVerValRotated\InterpolatedVerValRotated.oc OLD
DATA             37 ..\..\output\output.InterpolatedVerValRotated\InterpolatedVerValRotated.fhd REPLACE
DATA             38 ..\..\output\output.InterpolatedVerValRotated\InterpolatedVerValRotated.fdn REPLACE
PCG              18 ..\..\model\model.InterpolatedVerValRotated\InterpolatedVerValRotated.pcg OLD
LPF              14 ..\..\model\model.InterpolatedVerValRotated\InterpolatedVerValRotated.lpf OLD
