# Name File for MODFLOW created on 12/14/2015 by ModelMuse
LIST             11 IsInsideTest.lst REPLACE
DATA(BINARY)      9 IsInsideTest.cbc REPLACE
DIS              12 IsInsideTest.dis OLD
BAS6             13 IsInsideTest.bas OLD
OC               39 IsInsideTest.oc OLD
DATA             37 IsInsideTest.fhd REPLACE
DATA             38 IsInsideTest.fdn REPLACE
PCG              18 IsInsideTest.pcg OLD
LPF              14 IsInsideTest.lpf OLD
