# Name File for MODFLOW created on 2/1/2017 by ModelMuse Version 3.8.1.27
LIST             11 ..\..\output\output.IsInsideTest\IsInsideTest.lst REPLACE
DATA(BINARY)      9 ..\..\output\output.IsInsideTest\IsInsideTest.cbc REPLACE
DIS              12 ..\..\model\model.IsInsideTest\IsInsideTest.dis OLD
BAS6             13 ..\..\model\model.IsInsideTest\IsInsideTest.bas OLD
OC               39 ..\..\model\model.IsInsideTest\IsInsideTest.oc OLD
DATA             37 ..\..\output\output.IsInsideTest\IsInsideTest.fhd REPLACE
DATA             38 ..\..\output\output.IsInsideTest\IsInsideTest.fdn REPLACE
PCG              18 ..\..\model\model.IsInsideTest\IsInsideTest.pcg OLD
LPF              14 ..\..\model\model.IsInsideTest\IsInsideTest.lpf OLD
