# IST: Immobile Storage and Transfer Package file created on 1/30/2025 by ModelMuse version 5.3.1.6.
BEGIN OPTIONS
    SAVE_FLOWS
  SORPTION LANGMUIR
  ZERO_ORDER_DECAY
END OPTIONS

BEGIN GRIDDATA
  CIM LAYERED IPRN    12
    CONSTANT   0.000000000000E+000  # CIM 1

  POROSITY LAYERED IPRN    12
    CONSTANT   2.500000000000E-001  # POROSITY 1

  VOLFRAC LAYERED IPRN    12
    CONSTANT   2.000000000000E-001  # VOLFRAC 1

  ZETAIM LAYERED IPRN    12
    CONSTANT   1.000000000000E-003  # ZETAIM 1

  DECAY LAYERED IPRN    12
    CONSTANT  -5.000000000000E-004  # DECAY 1

  DECAY_SORBED LAYERED IPRN    12
    CONSTANT  -5.000000000000E-004  # DECAY_SORBED 1

  BULK_DENSITY LAYERED IPRN    12
    CONSTANT   4.000000000000E+000  # BULK_DENSITY 1

  DISTCOEF LAYERED IPRN    12
    CONSTANT   2.500000000000E-001  # DISTCOEF 1

  SP2 LAYERED IPRN    12
    CONSTANT   3.000000000000E-003  # SP2 1

END GRIDDATA

