# Transport name file for Chem1 file created on 1/30/2025 by ModelMuse version 5.3.1.6.
BEGIN OPTIONS
  LIST IstImportTest.Chem1.lst
    PRINT_INPUT
    SAVE_FLOWS
END OPTIONS

BEGIN PACKAGES
  DIS6 IstImportTest.Chem1.dis
  OBS6 IstImportTest.Chem1.obs
  OC6 IstImportTest.Chem1.oc
  FMI6 IstImportTest.Chem1.fmi
  ADV6 IstImportTest.Chem1.adv
  DSP6 IstImportTest.Chem1.dsp
  SSM6 IstImportTest.Chem1.ssm
  IC6 IstImportTest.Chem1.ic
  MST6 IstImportTest.Chem1.mst
  IST6 IstImportTest.Chem1.1.ist IST-1
  CNC6 IstImportTest.Chem1.cnc
END PACKAGES
