# CHD: Time-Variant Specified-Head package file created on 1/30/2025 by ModelMuse version 5.3.1.6.
BEGIN OPTIONS
    AUXILIARY IFACE Chem1
    BOUNDNAMES
    PRINT_INPUT
    SAVE_FLOWS
END OPTIONS

BEGIN DIMENSIONS
  MAXBOUND     1
END DIMENSIONS

BEGIN PERIOD      1
     1     1   401  1.000000000000E+000      0  0.000000000000E+000  'Imported_CHD_0_CHD_1_Period_1'  # Data Set 6: Layer Row Column Shead IFACE Chem1 boundname
END PERIOD 

