# Initial concentration file for Chem1 file created on 1/30/2025 by ModelMuse version 5.3.1.6.
BEGIN GRIDDATA
  STRT LAYERED IPRN    12
    CONSTANT   0.000000000000E+000  # STRT 1

END GRIDDATA

