# Discretization File created on 1/30/2025 by ModelMuse version 5.3.1.6.
# Upper left corner: (0, 1)
# Lower left corner: (0, 0)
# Upper right corner: (1002.5, 1)
# Lower right corner: (1002.5, 0)
# Grid angle (in degrees counterclockwise): 0
# Number of active cells = 401.
BEGIN OPTIONS
  LENGTH_UNITS METERS
  XORIGIN  0.000000000000E+000 
  YORIGIN  0.000000000000E+000 
  ANGROT  0.000000000000E+000 
END OPTIONS

BEGIN DIMENSIONS
  NLAY      1
  NROW      1
  NCOL    401
END DIMENSIONS


BEGIN GRIDDATA
  DELR IPRN    12
    CONSTANT   2.500000000000E+000  # DELR

  DELC IPRN    12
    CONSTANT   1.000000000000E+000  # DELC

  TOP LAYERED IPRN    12
    CONSTANT   1.000000000000E+000  # TOP

  BOTM LAYERED IPRN    12
    CONSTANT   0.000000000000E+000  # BOTM, Layer 1

  IDOMAIN LAYERED IPRN     5
    CONSTANT      1 # IDOMAIN 1
END GRIDDATA

