# Name File for MODFLOW created on 1/30/2025 by ModelMuse Version 5.3.1.6
BEGIN OPTIONS
  LIST ..\..\output\output.IstImportTest\IstImportTest.lst
  PRINT_INPUT
  SAVE_FLOWS
END OPTIONS

BEGIN PACKAGES
  DIS6         ..\..\model\model.IstImportTest\IstImportTest.dis  DIS
  IC6          ..\..\model\model.IstImportTest\IstImportTest.ic  IC
  NPF6         ..\..\model\model.IstImportTest\IstImportTest.npf  NPF
  OC6          ..\..\model\model.IstImportTest\IstImportTest.oc  OC
  CHD6         ..\..\model\model.IstImportTest\IstImportTest.chd  CHD-1
  WEL6         ..\..\model\model.IstImportTest\IstImportTest.wel  WEL-1
END PACKAGES
