# OBS: Observation Utility file created on 1/30/2025 by ModelMuse version 5.3.1.6.
BEGIN OPTIONS
    DIGITS     10
    PRINT_INPUT
END OPTIONS

BEGIN CONTINUOUS FILEOUT IstImportTest.Chem1.ob_gw_out_concentration.csv
  'conc_MYOBS_1_1_82_C1_0' concentration     1     1    82
END CONTINUOUS

