# Initial Conditions Package file created on 1/30/2025 by ModelMuse version 5.3.1.6.
BEGIN OPTIONS
END OPTIONS

BEGIN GRIDDATA
  STRT LAYERED IPRN    12
    CONSTANT   1.000000000000E+000  # STRT Layer 1

END GRIDDATA

