# DSP: GWT Dispersion Package file created on 1/30/2025 by ModelMuse version 5.3.1.6.
BEGIN OPTIONS
  XT3D_OFF
END OPTIONS

BEGIN GRIDDATA
  DIFFC LAYERED IPRN    12
    CONSTANT   0.000000000000E+000  # DIFFC 1

  ALH LAYERED IPRN    12
    CONSTANT   1.000000000000E+001  # ALH 1

  ALV LAYERED IPRN    12
    CONSTANT   1.000000000000E+001  # ALV 1

  ATH1 LAYERED IPRN    12
    CONSTANT   1.000000000000E+001  # ATH1 1

  ATH2 LAYERED IPRN    12
    CONSTANT   1.000000000000E+001  # ATH2 1

  ATV LAYERED IPRN    12
    CONSTANT   1.000000000000E+001  # ATV 1

END GRIDDATA

