# CNC: GWT Constant Concentration Package file created on 1/30/2025 by ModelMuse version 5.3.1.6.
BEGIN OPTIONS
    AUXILIARY IFACE
    BOUNDNAMES
    PRINT_INPUT
    SAVE_FLOWS
END OPTIONS

BEGIN DIMENSIONS
  MAXBOUND     1
END DIMENSIONS

BEGIN PERIOD      1
     1     1     1  1.000000000000E+000      0 'Imported_CNC_0_CNC_1_Period_1'  # Stress periods: Layer Row Column Conc IFACE boundname
END PERIOD 

BEGIN PERIOD      2
     1     1     1  0.000000000000E+000      0 'Imported_CNC_0_CNC_2_Period_2'  # Stress periods: Layer Row Column Conc IFACE boundname
END PERIOD 

