BEGIN OPTIONS
  PRINT_INPUT
END OPTIONS

BEGIN TIMING
  TDIS6 'IstImportTest.Chem1.tdis'
END TIMING

BEGIN MODELS
  GWT6 'IstImportTest.Chem1.Gwt_nam' 'Chem1'
END MODELS

BEGIN EXCHANGES
END EXCHANGES

BEGIN SOLUTIONGROUP     1
  MXITER     1
  IMS6 'IstImportTest.Chem1.ims' 'Chem1' 
END SOLUTIONGROUP

