# WEL: Well package file created on 1/30/2025 by ModelMuse version 5.3.1.6.
BEGIN OPTIONS
    AUXILIARY IFACE Chem1
    BOUNDNAMES
    PRINT_INPUT
    SAVE_FLOWS
END OPTIONS

BEGIN DIMENSIONS
  MAXBOUND     1
END DIMENSIONS

BEGIN PERIOD      1
     1     1     1  6.000000000000E-002      0  0.000000000000E+000  'Imported_WEL_1_Wel_1_Period_1'  # Data Set 6: Layer Row Column Q IFACE Chem1 boundname Intersected by Imported_WEL_1_Wel_1_Period_1 with formula: ObjectImportedValuesR("Imported_Q Period_1")
END PERIOD 

