# Initial Conditions Package file created on 2/6/2025 by ModelMuse version 5.3.1.7.
BEGIN OPTIONS
  EXPORT_ARRAY_ASCII
END OPTIONS

BEGIN GRIDDATA
  STRT LAYERED IPRN    12
    CONSTANT   1.000000000000E+000  # STRT Layer 1

END GRIDDATA

