# SSM: GWT Source and Sink Mixing Package file created on 1/30/2025 by ModelMuse version 5.3.1.6.
BEGIN OPTIONS
    SAVE_FLOWS
END OPTIONS

BEGIN SOURCES
  CHD-1 AUX Chem1
  WEL-1 AUX Chem1
END SOURCES
