# TDIS file created on 1/30/2025 by ModelMuse version 5.3.1.6.

BEGIN OPTIONS
  TIME_UNITS days
END OPTIONS

BEGIN DIMENSIONS
  NPER     2
END DIMENSIONS

BEGIN PERIODDATA
    1.000000000000E+003      1  1.000000000000E+000  # perlen nstp tsmult, Stress period      1 Time =  0.000000000000E+000  -  1.000000000000E+003 
    9.000000000000E+003      1  1.000000000000E+000  # perlen nstp tsmult, Stress period      2 Time =  1.000000000000E+003  -  1.000000000000E+004 
END PERIODDATA
