# ADV: GWT Advection Package file created on 1/30/2025 by ModelMuse version 5.3.1.6.
BEGIN OPTIONS
  SCHEME upstream
END OPTIONS

