# Output Control file created on 1/30/2025 by ModelMuse version 5.3.1.6.
BEGIN OPTIONS
  BUDGET FILEOUT 'IstImportTest.Chem1.cbc'
  CONCENTRATION FILEOUT 'IstImportTest.Chem1.conc'
END OPTIONS

BEGIN PERIOD      1
  SAVE CONCENTRATION ALL
  PRINT BUDGET ALL
  SAVE BUDGET ALL
END PERIOD 

BEGIN PERIOD      2
  SAVE CONCENTRATION ALL
  PRINT BUDGET ALL
  SAVE BUDGET ALL
END PERIOD 

