# Name File for MODFLOW created on 1/30/2025 by ModelMuse Version 5.3.1.6
BEGIN OPTIONS
  LIST IstImportTest.lst
  PRINT_INPUT
  SAVE_FLOWS
END OPTIONS

BEGIN PACKAGES
  DIS6         IstImportTest.dis  DIS
  IC6          IstImportTest.ic  IC
  NPF6         IstImportTest.npf  NPF
  OC6          IstImportTest.oc  OC
  CHD6         IstImportTest.chd  CHD-1
  WEL6         IstImportTest.wel  WEL-1
END PACKAGES
