# IMS: Iterative Model Solution file created on 1/30/2025 by ModelMuse version 5.3.1.6.
BEGIN OPTIONS
  PRINT_OPTION ALL
  COMPLEXITY SIMPLE
  CSV_OUTER_OUTPUT FILEOUT IstImportTest.OuterSolution.CSV
  CSV_INNER_OUTPUT FILEOUT IstImportTest.InnerSolution.CSV
  ATS_OUTER_MAXIMUM_FRACTION  3.333333333333E-001 
END OPTIONS

BEGIN NONLINEAR
  OUTER_DVCLOSE   1.000000000000E-003 
  OUTER_MAXIMUM     25
  UNDER_RELAXATION NONE
  BACKTRACKING_NUMBER     0
END NONLINEAR

BEGIN LINEAR
  INNER_MAXIMUM    50
  INNER_DVCLOSE  1.000000000000E-004 
  INNER_RCLOSE  1.000000000000E-001 
  LINEAR_ACCELERATION CG
END LINEAR

