# ADV: GWT Advection Package file created on 1/31/2025 by ModelMuse version 5.3.1.6.
BEGIN OPTIONS
  SCHEME upstream
  ATS_PERCEL  5.000000000000E-001 
END OPTIONS

