# NPF: Node Property Flow package file created on 7/31/2019 by ModelMuse version 4.0.0.7.
BEGIN OPTIONS
    SAVE_FLOWS
  SAVE_SPECIFIC_DISCHARGE
END OPTIONS


BEGIN GRIDDATA
  ICELLTYPE LAYERED IPRN     5
    CONSTANT      1 # ICELLTYPE 1
    CONSTANT      1 # ICELLTYPE 2
    CONSTANT      0 # ICELLTYPE 3
    CONSTANT      0 # ICELLTYPE 4
    CONSTANT      0 # ICELLTYPE 5
    CONSTANT      0 # ICELLTYPE 6
    CONSTANT      0 # ICELLTYPE 7
    CONSTANT      0 # ICELLTYPE 8
  K LAYERED IPRN    12
    CONSTANT   2.500000000000E+002  # K 1

    CONSTANT   2.500000000000E+002  # K 2

    CONSTANT   2.500000000000E+002  # K 3

    CONSTANT   2.500000000000E+002  # K 4

    CONSTANT   2.500000000000E+002  # K 5

    CONSTANT   2.500000000000E+002  # K 6

    CONSTANT   2.500000000000E+002  # K 7

    CONSTANT   2.500000000000E+002  # K 8

  K33 LAYERED IPRN    12
    CONSTANT   1.250000000000E+002  # K33 1

    CONSTANT   1.250000000000E+002  # K33 2

    CONSTANT   1.250000000000E+002  # K33 3

    CONSTANT   1.250000000000E+002  # K33 4

    CONSTANT   1.250000000000E+002  # K33 5

    CONSTANT   1.250000000000E+002  # K33 6

    CONSTANT   1.250000000000E+002  # K33 7

    CONSTANT   1.250000000000E+002  # K33 8

  K22 LAYERED IPRN    12
    CONSTANT   2.500000000000E+002  # K22 1

    CONSTANT   2.500000000000E+002  # K22 2

    CONSTANT   2.500000000000E+002  # K22 3

    CONSTANT   2.500000000000E+002  # K22 4

    CONSTANT   2.500000000000E+002  # K22 5

    CONSTANT   2.500000000000E+002  # K22 6

    CONSTANT   2.500000000000E+002  # K22 7

    CONSTANT   2.500000000000E+002  # K22 8

END GRIDDATA

