# Name File for MODFLOW created on 12/14/2015 by ModelMuse
LIST             11 LakeBathymetryTest.lst REPLACE
DATA(BINARY)      9 LakeBathymetryTest.cbc REPLACE
DIS              12 LakeBathymetryTest.dis OLD
BAS6             13 LakeBathymetryTest.bas OLD
OC               39 LakeBathymetryTest.oc OLD
DATA             37 LakeBathymetryTest.fhd REPLACE
DATA             38 LakeBathymetryTest.fdn REPLACE
SIP              35 LakeBathymetryTest.sip OLD
BCF6             64 LakeBathymetryTest.bcf OLD
CHD              17 LakeBathymetryTest.chd OLD
RCH              24 LakeBathymetryTest.rch OLD
EVT              25 LakeBathymetryTest.evt OLD
LAK              28 LakeBathymetryTest.lak OLD
DATA          20205 LakeBathymetryTest.lak_bath1 OLD
