# Name File for MT3DMS created on 11/16/2019 by ModelMuse
LIST 16 LakeMf6.mls
FT6 25 LakeMf6.cbc
FT6 26 LakeMf6.bhd
FT6 27 LakeMf6.dis.grb
DATA 17 LakeMf6.cnf
BTN 1 LakeMf6.btn
DATA(BINARY) 201 LakeMf6_Conc.ucn
DATA 601 LakeMf6_Conc._mas
ADV 2 LakeMf6.adv
DSP 3 LakeMf6.dsp
SSM 4 LakeMf6.ssm
GCG 9 LakeMf6.gcg
