# RCH: Recharge package file created on 2/4/2020 by ModelMuse version 4.1.0.25.
BEGIN OPTIONS
  AUXILIARY IFACE
  PRINT_INPUT
    SAVE_FLOWS
    BOUNDNAMES
  FIXED_CELL
END OPTIONS

BEGIN DIMENSIONS
  MAXBOUND   693
END DIMENSIONS

BEGIN PERIOD      1
     1    36    23  4.790000000000E-003      0 'Object16' 
     1    36    22  4.790000000000E-003      0 'Object16' 
     1    36    21  4.790000000000E-003      0 'Object16' 
     1    35    23  4.790000000000E-003      0 'Object16' 
     1    35    22  4.790000000000E-003      0 'Object16' 
     1    35    21  4.790000000000E-003      0 'Object16' 
     1    35    20  4.790000000000E-003      0 'Object16' 
     1    35    19  4.790000000000E-003      0 'Object16' 
     1    35    18  4.790000000000E-003      0 'Object16' 
     1    35    17  4.790000000000E-003      0 'Object16' 
     1    35    16  4.790000000000E-003      0 'Object16' 
     1    35    15  4.790000000000E-003      0 'Object16' 
     1    35    14  4.790000000000E-003      0 'Object16' 
     1    34    23  4.790000000000E-003      0 'Object16' 
     1    34    22  4.790000000000E-003      0 'Object16' 
     1    34    21  4.790000000000E-003      0 'Object16' 
     1    34    20  4.790000000000E-003      0 'Object16' 
     1    34    19  4.790000000000E-003      0 'Object16' 
     1    34    18  4.790000000000E-003      0 'Object16' 
     1    34    17  4.790000000000E-003      0 'Object16' 
     1    34    16  4.790000000000E-003      0 'Object16' 
     1    34    15  4.790000000000E-003      0 'Object16' 
     1    34    14  4.790000000000E-003      0 'Object16' 
     1    34    13  4.790000000000E-003      0 'Object16' 
     1    34    12  4.790000000000E-003      0 'Object16' 
     1    34    11  4.790000000000E-003      0 'Object16' 
     1    34    10  4.790000000000E-003      0 'Object16' 
     1    34     9  4.790000000000E-003      0 'Object16' 
     1    34     8  4.790000000000E-003      0 'Object16' 
     1    33    23  4.790000000000E-003      0 'Object16' 
     1    33    22  4.790000000000E-003      0 'Object16' 
     1    33    21  4.790000000000E-003      0 'Object16' 
     1    33    20  4.790000000000E-003      0 'Object16' 
     1    33    19  4.790000000000E-003      0 'Object16' 
     1    33    18  4.790000000000E-003      0 'Object16' 
     1    33    17  4.790000000000E-003      0 'Object16' 
     1    33    16  4.790000000000E-003      0 'Object16' 
     1    33    15  4.790000000000E-003      0 'Object16' 
     1    33    14  4.790000000000E-003      0 'Object16' 
     1    33    13  4.790000000000E-003      0 'Object16' 
     1    33    12  4.790000000000E-003      0 'Object16' 
     1    33    11  4.790000000000E-003      0 'Object16' 
     1    33    10  4.790000000000E-003      0 'Object16' 
     1    33     9  4.790000000000E-003      0 'Object16' 
     1    33     8  4.790000000000E-003      0 'Object16' 
     1    33     7  4.790000000000E-003      0 'Object16' 
     1    33     6  4.790000000000E-003      0 'Object16' 
     1    33     5  4.790000000000E-003      0 'Object16' 
     1    33     4  4.790000000000E-003      0 'Object16' 
     1    33     3  4.790000000000E-003      0 'Object16' 
     1    33     2  4.790000000000E-003      0 'Object16' 
     1    33     1  4.790000000000E-003      0 'Object16' 
     1    32    23  4.790000000000E-003      0 'Object16' 
     1    32    22  4.790000000000E-003      0 'Object16' 
     1    32    21  4.790000000000E-003      0 'Object16' 
     1    32    20  4.790000000000E-003      0 'Object16' 
     1    32    19  4.790000000000E-003      0 'Object16' 
     1    32    18  4.790000000000E-003      0 'Object16' 
     1    32    17  4.790000000000E-003      0 'Object16' 
     1    32    16  4.790000000000E-003      0 'Object16' 
     1    32    15  4.790000000000E-003      0 'Object16' 
     1    32    14  4.790000000000E-003      0 'Object16' 
     1    32    13  4.790000000000E-003      0 'Object16' 
     1    32    12  4.790000000000E-003      0 'Object16' 
     1    32    11  4.790000000000E-003      0 'Object16' 
     1    32    10  4.790000000000E-003      0 'Object16' 
     1    32     9  4.790000000000E-003      0 'Object16' 
     1    32     8  4.790000000000E-003      0 'Object16' 
     1    32     7  4.790000000000E-003      0 'Object16' 
     1    32     6  4.790000000000E-003      0 'Object16' 
     1    32     5  4.790000000000E-003      0 'Object16' 
     1    32     4  4.790000000000E-003      0 'Object16' 
     1    32     3  4.790000000000E-003      0 'Object16' 
     1    32     2  4.790000000000E-003      0 'Object16' 
     1    32     1  4.790000000000E-003      0 'Object16' 
     1    31    23  4.790000000000E-003      0 'Object16' 
     1    31    22  4.790000000000E-003      0 'Object16' 
     1    31    21  4.790000000000E-003      0 'Object16' 
     1    31    20  4.790000000000E-003      0 'Object16' 
     1    31    19  4.790000000000E-003      0 'Object16' 
     1    31    18  4.790000000000E-003      0 'Object16' 
     1    31    17  4.790000000000E-003      0 'Object16' 
     1    31    16  4.790000000000E-003      0 'Object16' 
     1    31    15  4.790000000000E-003      0 'Object16' 
     1    31    14  4.790000000000E-003      0 'Object16' 
     1    31    13  4.790000000000E-003      0 'Object16' 
     1    31    12  4.790000000000E-003      0 'Object16' 
     1    31    11  4.790000000000E-003      0 'Object16' 
     1    31    10  4.790000000000E-003      0 'Object16' 
     1    31     9  4.790000000000E-003      0 'Object16' 
     1    31     8  4.790000000000E-003      0 'Object16' 
     1    31     7  4.790000000000E-003      0 'Object16' 
     1    31     6  4.790000000000E-003      0 'Object16' 
     1    31     5  4.790000000000E-003      0 'Object16' 
     1    31     4  4.790000000000E-003      0 'Object16' 
     1    31     3  4.790000000000E-003      0 'Object16' 
     1    31     2  4.790000000000E-003      0 'Object16' 
     1    31     1  4.790000000000E-003      0 'Object16' 
     1    30    23  4.790000000000E-003      0 'Object16' 
     1    30    22  4.790000000000E-003      0 'Object16' 
     1    30    21  4.790000000000E-003      0 'Object16' 
     1    30    20  4.790000000000E-003      0 'Object16' 
     1    30    19  4.790000000000E-003      0 'Object16' 
     1    30    18  4.790000000000E-003      0 'Object16' 
     1    30    17  4.790000000000E-003      0 'Object16' 
     1    30    16  4.790000000000E-003      0 'Object16' 
     1    30    15  4.790000000000E-003      0 'Object16' 
     1    30    14  4.790000000000E-003      0 'Object16' 
     1    30    13  4.790000000000E-003      0 'Object16' 
     1    30    12  4.790000000000E-003      0 'Object16' 
     1    30    11  4.790000000000E-003      0 'Object16' 
     1    30    10  4.790000000000E-003      0 'Object16' 
     1    30     9  4.790000000000E-003      0 'Object16' 
     1    30     8  4.790000000000E-003      0 'Object16' 
     1    30     7  4.790000000000E-003      0 'Object16' 
     1    30     6  4.790000000000E-003      0 'Object16' 
     1    30     5  4.790000000000E-003      0 'Object16' 
     1    30     4  4.790000000000E-003      0 'Object16' 
     1    30     3  4.790000000000E-003      0 'Object16' 
     1    30     2  4.790000000000E-003      0 'Object16' 
     1    30     1  4.790000000000E-003      0 'Object16' 
     1    29    23  4.790000000000E-003      0 'Object16' 
     1    29    22  4.790000000000E-003      0 'Object16' 
     1    29    21  4.790000000000E-003      0 'Object16' 
     1    29    20  4.790000000000E-003      0 'Object16' 
     1    29    19  4.790000000000E-003      0 'Object16' 
     1    29    18  4.790000000000E-003      0 'Object16' 
     1    29    17  4.790000000000E-003      0 'Object16' 
     1    29    16  4.790000000000E-003      0 'Object16' 
     1    29    15  4.790000000000E-003      0 'Object16' 
     1    29    14  4.790000000000E-003      0 'Object16' 
     1    29    13  4.790000000000E-003      0 'Object16' 
     1    29    12  4.790000000000E-003      0 'Object16' 
     1    29    11  4.790000000000E-003      0 'Object16' 
     1    29    10  4.790000000000E-003      0 'Object16' 
     1    29     9  4.790000000000E-003      0 'Object16' 
     1    29     8  4.790000000000E-003      0 'Object16' 
     1    29     7  4.790000000000E-003      0 'Object16' 
     1    29     6  4.790000000000E-003      0 'Object16' 
     1    29     5  4.790000000000E-003      0 'Object16' 
     1    29     4  4.790000000000E-003      0 'Object16' 
     1    29     3  4.790000000000E-003      0 'Object16' 
     1    29     2  4.790000000000E-003      0 'Object16' 
     1    29     1  4.790000000000E-003      0 'Object16' 
     1    28    23  4.790000000000E-003      0 'Object16' 
     1    28    22  4.790000000000E-003      0 'Object16' 
     1    28    21  4.790000000000E-003      0 'Object16' 
     1    28    20  4.790000000000E-003      0 'Object16' 
     1    28    19  4.790000000000E-003      0 'Object16' 
     1    28    18  4.790000000000E-003      0 'Object16' 
     1    28    17  4.790000000000E-003      0 'Object16' 
     1    28    16  4.790000000000E-003      0 'Object16' 
     1    28    15  4.790000000000E-003      0 'Object16' 
     1    28    14  4.790000000000E-003      0 'Object16' 
     1    28    13  4.790000000000E-003      0 'Object16' 
     1    28    12  4.790000000000E-003      0 'Object16' 
     1    28    11  4.790000000000E-003      0 'Object16' 
     1    28    10  4.790000000000E-003      0 'Object16' 
     1    28     9  4.790000000000E-003      0 'Object16' 
     1    28     8  4.790000000000E-003      0 'Object16' 
     1    28     7  4.790000000000E-003      0 'Object16' 
     1    28     6  4.790000000000E-003      0 'Object16' 
     1    28     5  4.790000000000E-003      0 'Object16' 
     1    28     4  4.790000000000E-003      0 'Object16' 
     1    28     3  4.790000000000E-003      0 'Object16' 
     1    28     2  4.790000000000E-003      0 'Object16' 
     1    28     1  4.790000000000E-003      0 'Object16' 
     1    27    23  4.790000000000E-003      0 'Object16' 
     1    27    22  4.790000000000E-003      0 'Object16' 
     1    27    21  4.790000000000E-003      0 'Object16' 
     1    27    20  4.790000000000E-003      0 'Object16' 
     1    27    19  4.790000000000E-003      0 'Object16' 
     1    27    18  4.790000000000E-003      0 'Object16' 
     1    27    17  4.790000000000E-003      0 'Object16' 
     1    27    16  4.790000000000E-003      0 'Object16' 
     1    27    15  4.790000000000E-003      0 'Object16' 
     1    27    14  4.790000000000E-003      0 'Object16' 
     1    27    13  4.790000000000E-003      0 'Object16' 
     1    27    12  4.790000000000E-003      0 'Object16' 
     1    27    11  4.790000000000E-003      0 'Object16' 
     1    27    10  4.790000000000E-003      0 'Object16' 
     1    27     9  4.790000000000E-003      0 'Object16' 
     1    27     8  4.790000000000E-003      0 'Object16' 
     1    27     7  4.790000000000E-003      0 'Object16' 
     1    27     6  4.790000000000E-003      0 'Object16' 
     1    27     5  4.790000000000E-003      0 'Object16' 
     1    27     4  4.790000000000E-003      0 'Object16' 
     1    27     3  4.790000000000E-003      0 'Object16' 
     1    27     2  4.790000000000E-003      0 'Object16' 
     1    27     1  4.790000000000E-003      0 'Object16' 
     1    26    23  4.790000000000E-003      0 'Object16' 
     1    26    22  4.790000000000E-003      0 'Object16' 
     1    26    21  4.790000000000E-003      0 'Object16' 
     1    26    20  4.790000000000E-003      0 'Object16' 
     1    26    19  4.790000000000E-003      0 'Object16' 
     1    26    18  4.790000000000E-003      0 'Object16' 
     1    26    17  4.790000000000E-003      0 'Object16' 
     1    26    16  4.790000000000E-003      0 'Object16' 
     1    26    15  4.790000000000E-003      0 'Object16' 
     1    26    14  4.790000000000E-003      0 'Object16' 
     1    26    13  4.790000000000E-003      0 'Object16' 
     1    26    12  4.790000000000E-003      0 'Object16' 
     1    26    11  4.790000000000E-003      0 'Object16' 
     1    26    10  4.790000000000E-003      0 'Object16' 
     1    26     9  4.790000000000E-003      0 'Object16' 
     1    26     8  4.790000000000E-003      0 'Object16' 
     1    26     7  4.790000000000E-003      0 'Object16' 
     1    26     6  4.790000000000E-003      0 'Object16' 
     1    26     5  4.790000000000E-003      0 'Object16' 
     1    26     4  4.790000000000E-003      0 'Object16' 
     1    26     3  4.790000000000E-003      0 'Object16' 
     1    25    23  4.790000000000E-003      0 'Object16' 
     1    25    22  4.790000000000E-003      0 'Object16' 
     1    25    21  4.790000000000E-003      0 'Object16' 
     1    25    20  4.790000000000E-003      0 'Object16' 
     1    25    19  4.790000000000E-003      0 'Object16' 
     1    25    18  4.790000000000E-003      0 'Object16' 
     1    25    17  4.790000000000E-003      0 'Object16' 
     1    25    16  4.790000000000E-003      0 'Object16' 
     1    25    15  4.790000000000E-003      0 'Object16' 
     1    25    14  4.790000000000E-003      0 'Object16' 
     1    25    13  4.790000000000E-003      0 'Object16' 
     1    25    12  4.790000000000E-003      0 'Object16' 
     1    25    11  4.790000000000E-003      0 'Object16' 
     1    25    10  4.790000000000E-003      0 'Object16' 
     1    25     9  4.790000000000E-003      0 'Object16' 
     1    25     8  4.790000000000E-003      0 'Object16' 
     1    25     7  4.790000000000E-003      0 'Object16' 
     1    25     6  4.790000000000E-003      0 'Object16' 
     1    25     5  4.790000000000E-003      0 'Object16' 
     1    25     4  4.790000000000E-003      0 'Object16' 
     1    25     3  4.790000000000E-003      0 'Object16' 
     1    24    23  4.790000000000E-003      0 'Object16' 
     1    24    22  4.790000000000E-003      0 'Object16' 
     1    24    21  4.790000000000E-003      0 'Object16' 
     1    24    20  4.790000000000E-003      0 'Object16' 
     1    24    19  4.790000000000E-003      0 'Object16' 
     1    24    18  4.790000000000E-003      0 'Object16' 
     1    24    17  4.790000000000E-003      0 'Object16' 
     1    24    16  4.790000000000E-003      0 'Object16' 
     1    24    15  4.790000000000E-003      0 'Object16' 
     1    24    14  4.790000000000E-003      0 'Object16' 
     1    24    13  4.790000000000E-003      0 'Object16' 
     1    24    12  4.790000000000E-003      0 'Object16' 
     1    24    11  4.790000000000E-003      0 'Object16' 
     1    24    10  4.790000000000E-003      0 'Object16' 
     1    24     9  4.790000000000E-003      0 'Object16' 
     1    24     8  4.790000000000E-003      0 'Object16' 
     1    24     7  4.790000000000E-003      0 'Object16' 
     1    24     6  4.790000000000E-003      0 'Object16' 
     1    24     5  4.790000000000E-003      0 'Object16' 
     1    23    23  4.790000000000E-003      0 'Object16' 
     1    23    22  4.790000000000E-003      0 'Object16' 
     1    23    21  4.790000000000E-003      0 'Object16' 
     1    23    20  4.790000000000E-003      0 'Object16' 
     1    23    19  4.790000000000E-003      0 'Object16' 
     1    23    18  4.790000000000E-003      0 'Object16' 
     1    23    17  4.790000000000E-003      0 'Object16' 
     1    23    16  4.790000000000E-003      0 'Object16' 
     1    23    15  4.790000000000E-003      0 'Object16' 
     1    23    14  4.790000000000E-003      0 'Object16' 
     1    23    13  4.790000000000E-003      0 'Object16' 
     1    23    12  4.790000000000E-003      0 'Object16' 
     1    23    11  4.790000000000E-003      0 'Object16' 
     1    23    10  4.790000000000E-003      0 'Object16' 
     1    23     9  4.790000000000E-003      0 'Object16' 
     1    23     8  4.790000000000E-003      0 'Object16' 
     1    23     7  4.790000000000E-003      0 'Object16' 
     1    23     6  4.790000000000E-003      0 'Object16' 
     1    23     5  4.790000000000E-003      0 'Object16' 
     1    22    23  4.790000000000E-003      0 'Object16' 
     1    22    22  4.790000000000E-003      0 'Object16' 
     1    22    21  4.790000000000E-003      0 'Object16' 
     1    22    20  4.790000000000E-003      0 'Object16' 
     1    22    19  4.790000000000E-003      0 'Object16' 
     1    22    18  4.790000000000E-003      0 'Object16' 
     1    22    17  4.790000000000E-003      0 'Object16' 
     1    22    16  4.790000000000E-003      0 'Object16' 
     1    22    15  4.790000000000E-003      0 'Object16' 
     1    22    14  4.790000000000E-003      0 'Object16' 
     1    22    13  4.790000000000E-003      0 'Object16' 
     1    22    12  4.790000000000E-003      0 'Object16' 
     1    22    11  4.790000000000E-003      0 'Object16' 
     1    22    10  4.790000000000E-003      0 'Object16' 
     1    22     9  4.790000000000E-003      0 'Object16' 
     1    22     8  4.790000000000E-003      0 'Object16' 
     1    22     7  4.790000000000E-003      0 'Object16' 
     1    22     6  4.790000000000E-003      0 'Object16' 
     1    22     5  4.790000000000E-003      0 'Object16' 
     1    22     4  4.790000000000E-003      0 'Object16' 
     1    21    23  4.790000000000E-003      0 'Object16' 
     1    21    22  4.790000000000E-003      0 'Object16' 
     1    21    21  4.790000000000E-003      0 'Object16' 
     1    21    20  4.790000000000E-003      0 'Object16' 
     1    21    19  4.790000000000E-003      0 'Object16' 
     1    21    18  4.790000000000E-003      0 'Object16' 
     1    21    17  4.790000000000E-003      0 'Object16' 
     1    21    16  4.790000000000E-003      0 'Object16' 
     1    21    15  4.790000000000E-003      0 'Object16' 
     1    21    14  4.790000000000E-003      0 'Object16' 
     1    21    13  4.790000000000E-003      0 'Object16' 
     1    21    12  4.790000000000E-003      0 'Object16' 
     1    21    11  4.790000000000E-003      0 'Object16' 
     1    21    10  4.790000000000E-003      0 'Object16' 
     1    21     9  4.790000000000E-003      0 'Object16' 
     1    21     8  4.790000000000E-003      0 'Object16' 
     1    21     7  4.790000000000E-003      0 'Object16' 
     1    21     6  4.790000000000E-003      0 'Object16' 
     1    21     5  4.790000000000E-003      0 'Object16' 
     1    21     4  4.790000000000E-003      0 'Object16' 
     1    21     3  4.790000000000E-003      0 'Object16' 
     1    20    23  4.790000000000E-003      0 'Object16' 
     1    20    22  4.790000000000E-003      0 'Object16' 
     1    20    21  4.790000000000E-003      0 'Object16' 
     1    20    20  4.790000000000E-003      0 'Object16' 
     1    20    19  4.790000000000E-003      0 'Object16' 
     1    20    18  4.790000000000E-003      0 'Object16' 
     1    20    17  4.790000000000E-003      0 'Object16' 
     1    20    16  4.790000000000E-003      0 'Object16' 
     1    20    15  4.790000000000E-003      0 'Object16' 
     1    20    14  4.790000000000E-003      0 'Object16' 
     1    20    13  4.790000000000E-003      0 'Object16' 
     1    20    12  4.790000000000E-003      0 'Object16' 
     1    20    11  4.790000000000E-003      0 'Object16' 
     1    20    10  4.790000000000E-003      0 'Object16' 
     1    20     9  4.790000000000E-003      0 'Object16' 
     1    20     8  4.790000000000E-003      0 'Object16' 
     1    20     7  4.790000000000E-003      0 'Object16' 
     1    20     6  4.790000000000E-003      0 'Object16' 
     1    20     5  4.790000000000E-003      0 'Object16' 
     1    20     4  4.790000000000E-003      0 'Object16' 
     1    20     3  4.790000000000E-003      0 'Object16' 
     1    19    23  4.790000000000E-003      0 'Object16' 
     1    19    22  4.790000000000E-003      0 'Object16' 
     1    19    21  4.790000000000E-003      0 'Object16' 
     1    19    20  4.790000000000E-003      0 'Object16' 
     1    19    19  4.790000000000E-003      0 'Object16' 
     1    19    18  4.790000000000E-003      0 'Object16' 
     1    19    17  4.790000000000E-003      0 'Object16' 
     1    19    16  4.790000000000E-003      0 'Object16' 
     1    19    15  4.790000000000E-003      0 'Object16' 
     1    19    14  4.790000000000E-003      0 'Object16' 
     1    19    13  4.790000000000E-003      0 'Object16' 
     1    19    12  4.790000000000E-003      0 'Object16' 
     1    19    11  4.790000000000E-003      0 'Object16' 
     1    19    10  4.790000000000E-003      0 'Object16' 
     1    19     9  4.790000000000E-003      0 'Object16' 
     1    19     8  4.790000000000E-003      0 'Object16' 
     1    19     7  4.790000000000E-003      0 'Object16' 
     1    19     6  4.790000000000E-003      0 'Object16' 
     1    19     5  4.790000000000E-003      0 'Object16' 
     1    19     4  4.790000000000E-003      0 'Object16' 
     1    19     3  4.790000000000E-003      0 'Object16' 
     1    18    23  4.790000000000E-003      0 'Object16' 
     1    18    22  4.790000000000E-003      0 'Object16' 
     1    18    21  4.790000000000E-003      0 'Object16' 
     1    18    20  4.790000000000E-003      0 'Object16' 
     1    18    19  4.790000000000E-003      0 'Object16' 
     1    18    18  4.790000000000E-003      0 'Object16' 
     1    18    17  4.790000000000E-003      0 'Object16' 
     1    18    16  4.790000000000E-003      0 'Object16' 
     1    18    15  4.790000000000E-003      0 'Object16' 
     1    18    14  4.790000000000E-003      0 'Object16' 
     1    18    13  4.790000000000E-003      0 'Object16' 
     1    18    12  4.790000000000E-003      0 'Object16' 
     1    18    11  4.790000000000E-003      0 'Object16' 
     1    18    10  4.790000000000E-003      0 'Object16' 
     1    18     9  4.790000000000E-003      0 'Object16' 
     1    18     8  4.790000000000E-003      0 'Object16' 
     1    18     7  4.790000000000E-003      0 'Object16' 
     1    18     6  4.790000000000E-003      0 'Object16' 
     1    18     5  4.790000000000E-003      0 'Object16' 
     1    18     4  4.790000000000E-003      0 'Object16' 
     1    18     3  4.790000000000E-003      0 'Object16' 
     1    18     2  4.790000000000E-003      0 'Object16' 
     1    17    23  4.790000000000E-003      0 'Object16' 
     1    17    22  4.790000000000E-003      0 'Object16' 
     1    17    21  4.790000000000E-003      0 'Object16' 
     1    17    20  4.790000000000E-003      0 'Object16' 
     1    17    19  4.790000000000E-003      0 'Object16' 
     1    17    18  4.790000000000E-003      0 'Object16' 
     1    17    17  4.790000000000E-003      0 'Object16' 
     1    17    16  4.790000000000E-003      0 'Object16' 
     1    17    15  4.790000000000E-003      0 'Object16' 
     1    17    14  4.790000000000E-003      0 'Object16' 
     1    17    13  4.790000000000E-003      0 'Object16' 
     1    17    12  4.790000000000E-003      0 'Object16' 
     1    17    11  4.790000000000E-003      0 'Object16' 
     1    17    10  4.790000000000E-003      0 'Object16' 
     1    17     9  4.790000000000E-003      0 'Object16' 
     1    17     8  4.790000000000E-003      0 'Object16' 
     1    17     7  4.790000000000E-003      0 'Object16' 
     1    17     6  4.790000000000E-003      0 'Object16' 
     1    17     5  4.790000000000E-003      0 'Object16' 
     1    17     4  4.790000000000E-003      0 'Object16' 
     1    17     3  4.790000000000E-003      0 'Object16' 
     1    17     2  4.790000000000E-003      0 'Object16' 
     1    16    23  4.790000000000E-003      0 'Object16' 
     1    16    22  4.790000000000E-003      0 'Object16' 
     1    16    21  4.790000000000E-003      0 'Object16' 
     1    16    20  4.790000000000E-003      0 'Object16' 
     1    16    19  4.790000000000E-003      0 'Object16' 
     1    16    17  4.790000000000E-003      0 'Object16' 
     1    16    16  4.790000000000E-003      0 'Object16' 
     1    16    15  4.790000000000E-003      0 'Object16' 
     1    16    14  4.790000000000E-003      0 'Object16' 
     1    16    13  4.790000000000E-003      0 'Object16' 
     1    16    12  4.790000000000E-003      0 'Object16' 
     1    16    11  4.790000000000E-003      0 'Object16' 
     1    16    10  4.790000000000E-003      0 'Object16' 
     1    16     9  4.790000000000E-003      0 'Object16' 
     1    16     8  4.790000000000E-003      0 'Object16' 
     1    16     7  4.790000000000E-003      0 'Object16' 
     1    16     6  4.790000000000E-003      0 'Object16' 
     1    16     5  4.790000000000E-003      0 'Object16' 
     1    16     4  4.790000000000E-003      0 'Object16' 
     1    16     3  4.790000000000E-003      0 'Object16' 
     1    16     2  4.790000000000E-003      0 'Object16' 
     1    15    23  4.790000000000E-003      0 'Object16' 
     1    15    22  4.790000000000E-003      0 'Object16' 
     1    15    21  4.790000000000E-003      0 'Object16' 
     1    15    20  4.790000000000E-003      0 'Object16' 
     1    15    16  4.790000000000E-003      0 'Object16' 
     1    15    15  4.790000000000E-003      0 'Object16' 
     1    15    14  4.790000000000E-003      0 'Object16' 
     1    15    13  4.790000000000E-003      0 'Object16' 
     1    15    12  4.790000000000E-003      0 'Object16' 
     1    15    11  4.790000000000E-003      0 'Object16' 
     1    15    10  4.790000000000E-003      0 'Object16' 
     1    15     9  4.790000000000E-003      0 'Object16' 
     1    15     8  4.790000000000E-003      0 'Object16' 
     1    15     7  4.790000000000E-003      0 'Object16' 
     1    15     6  4.790000000000E-003      0 'Object16' 
     1    15     5  4.790000000000E-003      0 'Object16' 
     1    15     4  4.790000000000E-003      0 'Object16' 
     1    15     3  4.790000000000E-003      0 'Object16' 
     1    15     2  4.790000000000E-003      0 'Object16' 
     1    14    23  4.790000000000E-003      0 'Object16' 
     1    14    22  4.790000000000E-003      0 'Object16' 
     1    14    21  4.790000000000E-003      0 'Object16' 
     1    14    16  4.790000000000E-003      0 'Object16' 
     1    14    15  4.790000000000E-003      0 'Object16' 
     1    14    14  4.790000000000E-003      0 'Object16' 
     1    14    13  4.790000000000E-003      0 'Object16' 
     1    14    12  4.790000000000E-003      0 'Object16' 
     1    14    11  4.790000000000E-003      0 'Object16' 
     1    14    10  4.790000000000E-003      0 'Object16' 
     1    14     9  4.790000000000E-003      0 'Object16' 
     1    14     8  4.790000000000E-003      0 'Object16' 
     1    14     7  4.790000000000E-003      0 'Object16' 
     1    14     6  4.790000000000E-003      0 'Object16' 
     1    14     5  4.790000000000E-003      0 'Object16' 
     1    14     4  4.790000000000E-003      0 'Object16' 
     1    14     3  4.790000000000E-003      0 'Object16' 
     1    14     2  4.790000000000E-003      0 'Object16' 
     1    13    23  4.790000000000E-003      0 'Object16' 
     1    13    22  4.790000000000E-003      0 'Object16' 
     1    13    21  4.790000000000E-003      0 'Object16' 
     1    13    16  4.790000000000E-003      0 'Object16' 
     1    13    15  4.790000000000E-003      0 'Object16' 
     1    13    14  4.790000000000E-003      0 'Object16' 
     1    13    13  4.790000000000E-003      0 'Object16' 
     1    13    12  4.790000000000E-003      0 'Object16' 
     1    13    11  4.790000000000E-003      0 'Object16' 
     1    13    10  4.790000000000E-003      0 'Object16' 
     1    13     9  4.790000000000E-003      0 'Object16' 
     1    13     8  4.790000000000E-003      0 'Object16' 
     1    13     7  4.790000000000E-003      0 'Object16' 
     1    13     6  4.790000000000E-003      0 'Object16' 
     1    13     5  4.790000000000E-003      0 'Object16' 
     1    13     4  4.790000000000E-003      0 'Object16' 
     1    13     3  4.790000000000E-003      0 'Object16' 
     1    13     2  4.790000000000E-003      0 'Object16' 
     1    12    23  4.790000000000E-003      0 'Object16' 
     1    12    22  4.790000000000E-003      0 'Object16' 
     1    12    16  4.790000000000E-003      0 'Object16' 
     1    12    15  4.790000000000E-003      0 'Object16' 
     1    12    14  4.790000000000E-003      0 'Object16' 
     1    12    13  4.790000000000E-003      0 'Object16' 
     1    12    12  4.790000000000E-003      0 'Object16' 
     1    12    11  4.790000000000E-003      0 'Object16' 
     1    12    10  4.790000000000E-003      0 'Object16' 
     1    12     9  4.790000000000E-003      0 'Object16' 
     1    12     8  4.790000000000E-003      0 'Object16' 
     1    12     7  4.790000000000E-003      0 'Object16' 
     1    12     6  4.790000000000E-003      0 'Object16' 
     1    12     5  4.790000000000E-003      0 'Object16' 
     1    12     4  4.790000000000E-003      0 'Object16' 
     1    12     3  4.790000000000E-003      0 'Object16' 
     1    12     2  4.790000000000E-003      0 'Object16' 
     1    11    23  4.790000000000E-003      0 'Object16' 
     1    11    22  4.790000000000E-003      0 'Object16' 
     1    11    16  4.790000000000E-003      0 'Object16' 
     1    11    15  4.790000000000E-003      0 'Object16' 
     1    11    14  4.790000000000E-003      0 'Object16' 
     1    11    13  4.790000000000E-003      0 'Object16' 
     1    11    12  4.790000000000E-003      0 'Object16' 
     1    11    11  4.790000000000E-003      0 'Object16' 
     1    11    10  4.790000000000E-003      0 'Object16' 
     1    11     9  4.790000000000E-003      0 'Object16' 
     1    11     8  4.790000000000E-003      0 'Object16' 
     1    11     7  4.790000000000E-003      0 'Object16' 
     1    11     6  4.790000000000E-003      0 'Object16' 
     1    11     5  4.790000000000E-003      0 'Object16' 