# Name File for MODFLOW created on 12/14/2015 by ModelMuse
LIST             11 lakeTest.lst REPLACE
DATA(BINARY)      9 lakeTest.cbc REPLACE
DIS              12 lakeTest.dis OLD
BAS6             13 lakeTest.bas OLD
OC               39 lakeTest.oc OLD
DATA             37 lakeTest.fhd REPLACE
DATA             38 lakeTest.fdn REPLACE
PCG              18 lakeTest.pcg OLD
LPF              14 lakeTest.lpf OLD
CHD              17 lakeTest.chd OLD
LAK              28 lakeTest.lak OLD
DATA          20205 lakeTest.lakg1 REPLACE
GAGE             40 lakeTest.gag OLD
