# Output Control file created on 7/31/2019 by ModelMuse version 4.0.0.7.
BEGIN OPTIONS
  BUDGET FILEOUT 'LakeMf6.cbc'
  HEAD FILEOUT 'LakeMf6.bhd'
END OPTIONS

BEGIN PERIOD      1
  SAVE HEAD ALL
  PRINT BUDGET ALL
  SAVE BUDGET ALL
END PERIOD 

