# Name File for MODFLOW created on 2/1/2017 by ModelMuse Version 3.8.1.27
LIST             11 ..\..\output\output.LakeBathymetryTest\LakeBathymetryTest.lst REPLACE
DATA(BINARY)      9 ..\..\output\output.LakeBathymetryTest\LakeBathymetryTest.cbc REPLACE
DIS              12 ..\..\model\model.LakeBathymetryTest\LakeBathymetryTest.dis OLD
BAS6             13 ..\..\model\model.LakeBathymetryTest\LakeBathymetryTest.bas OLD
OC               39 ..\..\model\model.LakeBathymetryTest\LakeBathymetryTest.oc OLD
DATA             37 ..\..\output\output.LakeBathymetryTest\LakeBathymetryTest.fhd REPLACE
DATA             38 ..\..\output\output.LakeBathymetryTest\LakeBathymetryTest.fdn REPLACE
SIP              35 ..\..\model\model.LakeBathymetryTest\LakeBathymetryTest.sip OLD
BCF6             64 ..\..\model\model.LakeBathymetryTest\LakeBathymetryTest.bcf OLD
CHD              17 ..\..\model\model.LakeBathymetryTest\LakeBathymetryTest.chd OLD
RCH              24 ..\..\model\model.LakeBathymetryTest\LakeBathymetryTest.rch OLD
EVT              25 ..\..\model\model.LakeBathymetryTest\LakeBathymetryTest.evt OLD
LAK              28 ..\..\model\model.LakeBathymetryTest\LakeBathymetryTest.lak OLD
DATA          20205 ..\..\model\model.LakeBathymetryTest\LakeBathymetryTest.lak_bath1 OLD
