# LAK: Lake package for MODFLOW 6 file created on 10/2/2020 by ModelMuse version 4.3.0.14.
BEGIN OPTIONS
    BOUNDNAMES
    PRINT_INPUT
    SAVE_FLOWS
  PACKAGE_CONVERGENCE FILEOUT LakeMf6.LakConvergence.CSV
    OBS6 FILEIN LakeMf6.ob_lak
  SURFDEP   2.000000000000E-001 
  TIME_CONVERSION   8.640000000000E+004 
  LENGTH_CONVERSION   1.000000000000E+000 
END OPTIONS

BEGIN DIMENSIONS
  NLAKES      2
  NOUTLETS      0
  NTABLES      0
END DIMENSIONS

BEGIN PACKAGEDATA
       1  4.400000000000E+001     78 'Lake1' 
       2  3.520000000000E+001     32 'Lake2' 
END PACKAGEDATA

BEGIN CONNECTIONDATA
# lakeno iconn cellid(ncelldim)   claktype    bedleak               belev                 telev                 connlen               connwidth
       1     1     1     7    16 HORIZONTAL  1.000000000000E+001   3.020175000000E+001   0.000000000000E+000   4.037170000000E+002   4.056650000000E+002 
       1     2     1     8    15 HORIZONTAL  1.000000000000E+001   3.021729000000E+001   0.000000000000E+000   4.056650000000E+002   4.037170000000E+002 
       1     3     2     8    16   VERTICAL  1.000000000000E+001   0.000000000000E+000   0.000000000000E+000   0.000000000000E+000   0.000000000000E+000 
       1     4     1     9    15 HORIZONTAL  1.000000000000E+001   2.982277000000E+001   0.000000000000E+000   4.056650000000E+002   4.037170000000E+002 
       1     5     2     9    16   VERTICAL  1.000000000000E+001   0.000000000000E+000   0.000000000000E+000   0.000000000000E+000   0.000000000000E+000 
       1     6     1    10    15 HORIZONTAL  1.000000000000E+001   2.970000000000E+001   0.000000000000E+000   4.056650000000E+002   4.037170000000E+002 
       1     7     1    11    16 HORIZONTAL  1.000000000000E+001   2.970000000000E+001   0.000000000000E+000   4.037170000000E+002   4.056650000000E+002 
       1     8     2    10    16   VERTICAL  1.000000000000E+001   0.000000000000E+000   0.000000000000E+000   0.000000000000E+000   0.000000000000E+000 
       1     9     1     7    17 HORIZONTAL  1.000000000000E+001   3.008806000000E+001   0.000000000000E+000   4.037170000000E+002   4.056650000000E+002 
       1    10     2     8    17   VERTICAL  1.000000000000E+001   0.000000000000E+000   0.000000000000E+000   0.000000000000E+000   0.000000000000E+000 
       1    11     2     9    17   VERTICAL  1.000000000000E+001   0.000000000000E+000   0.000000000000E+000   0.000000000000E+000   0.000000000000E+000 
       1    12     2    10    17   VERTICAL  1.000000000000E+001   0.000000000000E+000   0.000000000000E+000   0.000000000000E+000   0.000000000000E+000 
       1    13     1    11    16 HORIZONTAL  1.000000000000E+001   2.970000000000E+001   0.000000000000E+000   4.056650000000E+002   4.037170000000E+002 
       1    14     2    11    17   VERTICAL  1.000000000000E+001   0.000000000000E+000   0.000000000000E+000   0.000000000000E+000   0.000000000000E+000 
       1    15     1    12    16 HORIZONTAL  1.000000000000E+001   2.970000000000E+001   0.000000000000E+000   4.056650000000E+002   4.037170000000E+002 
       1    16     2    12    17   VERTICAL  1.000000000000E+001   0.000000000000E+000   0.000000000000E+000   0.000000000000E+000   0.000000000000E+000 
       1    17     1    13    16 HORIZONTAL  1.000000000000E+001   2.970000000000E+001   0.000000000000E+000   4.056650000000E+002   4.037170000000E+002 
       1    18     2    13    17   VERTICAL  1.000000000000E+001   0.000000000000E+000   0.000000000000E+000   0.000000000000E+000   0.000000000000E+000 
       1    19     1    14    16 HORIZONTAL  1.000000000000E+001   2.970000000000E+001   0.000000000000E+000   4.056650000000E+002   4.037170000000E+002 
       1    20     2    14    17   VERTICAL  1.000000000000E+001   0.000000000000E+000   0.000000000000E+000   0.000000000000E+000   0.000000000000E+000 
       1    21     1    15    16 HORIZONTAL  1.000000000000E+001   2.970000000000E+001   0.000000000000E+000   4.056650000000E+002   4.037170000000E+002 
       1    22     1    16    17 HORIZONTAL  1.000000000000E+001   2.970000000000E+001   0.000000000000E+000   4.037170000000E+002   4.056650000000E+002 
       1    23     2    15    17   VERTICAL  1.000000000000E+001   0.000000000000E+000   0.000000000000E+000   0.000000000000E+000   0.000000000000E+000 
       1    24     1     6    18 HORIZONTAL  1.000000000000E+001   3.049949000000E+001   0.000000000000E+000   4.037170000000E+002   4.056650000000E+002 
       1    25     1     7    17 HORIZONTAL  1.000000000000E+001   3.008806000000E+001   0.000000000000E+000   4.056650000000E+002   4.037170000000E+002 
       1    26     2     7    18   VERTICAL  1.000000000000E+001   0.000000000000E+000   0.000000000000E+000   0.000000000000E+000   0.000000000000E+000 
       1    27     2     8    18   VERTICAL  1.000000000000E+001   0.000000000000E+000   0.000000000000E+000   0.000000000000E+000   0.000000000000E+000 
       1    28     2     9    18   VERTICAL  1.000000000000E+001   0.000000000000E+000   0.000000000000E+000   0.000000000000E+000   0.000000000000E+000 
       1    29     2    10    18   VERTICAL  1.000000000000E+001   0.000000000000E+000   0.000000000000E+000   0.000000000000E+000   0.000000000000E+000 
       1    30     2    11    18   VERTICAL  1.000000000000E+001   0.000000000000E+000   0.000000000000E+000   0.000000000000E+000   0.000000000000E+000 
       1    31     2    12    18   VERTICAL  1.000000000000E+001   0.000000000000E+000   0.000000000000E+000   0.000000000000E+000   0.000000000000E+000 
       1    32     2    13    18   VERTICAL  1.000000000000E+001   0.000000000000E+000   0.000000000000E+000   0.000000000000E+000   0.000000000000E+000 
       1    33     2    14    18   VERTICAL  1.000000000000E+001   0.000000000000E+000   0.000000000000E+000   0.000000000000E+000   0.000000000000E+000 
       1    34     2    15    18   VERTICAL  1.000000000000E+001   0.000000000000E+000   0.000000000000E+000   0.000000000000E+000   0.000000000000E+000 
       1    35     1    16    17 HORIZONTAL  1.000000000000E+001   2.970000000000E+001   0.000000000000E+000   4.056650000000E+002   4.037170000000E+002 
       1    36     1    17    18 HORIZONTAL  1.000000000000E+001   2.956547000000E+001   0.000000000000E+000   4.037170000000E+002   4.056650000000E+002 
       1    37     1    16    19 HORIZONTAL  1.000000000000E+001   2.970000000000E+001   0.000000000000E+000   4.056650000000E+002   4.037170000000E+002 
       1    38     2    16    18   VERTICAL  1.000000000000E+001   0.000000000000E+000   0.000000000000E+000   0.000000000000E+000   0.000000000000E+000 
       1    39     1     5    19 HORIZONTAL  1.000000000000E+001   3.087908000000E+001   0.000000000000E+000   4.037170000000E+002   4.056650000000E+002 
       1    40     1     6    18 HORIZONTAL  1.000000000000E+001   3.049949000000E+001   0.000000000000E+000   4.056650000000E+002   4.037170000000E+002 
       1    41     2     6    19   VERTICAL  1.000000000000E+001   0.000000000000E+000   0.000000000000E+000   0.000000000000E+000   0.000000000000E+000 
       1    42     2     7    19   VERTICAL  1.000000000000E+001   0.000000000000E+000   0.000000000000E+000   0.000000000000E+000   0.000000000000E+000 
       1    43     2     8    19   VERTICAL  1.000000000000E+001   0.000000000000E+000   0.000000000000E+000   0.000000000000E+000   0.000000000000E+000 
       1    44     2     9    19   VERTICAL  1.000000000000E+001   0.000000000000E+000   0.000000000000E+000   0.000000000000E+000   0.000000000000E+000 
       1    45     2    10    19   VERTICAL  1.000000000000E+001   0.000000000000E+000   0.000000000000E+000   0.000000000000E+000   0.000000000000E+000 
       1    46     2    11    19   VERTICAL  1.000000000000E+001   0.000000000000E+000   0.000000000000E+000   0.000000000000E+000   0.000000000000E+000 
       1    47     2    12    19   VERTICAL  1.000000000000E+001   0.000000000000E+000   0.000000000000E+000   0.000000000000E+000   0.000000000000E+000 
       1    48     2    13    19   VERTICAL  1.000000000000E+001   0.000000000000E+000   0.000000000000E+000   0.000000000000E+000   0.000000000000E+000 
       1    49     2    14    19   VERTICAL  1.000000000000E+001   0.000000000000E+000   0.000000000000E+000   0.000000000000E+000   0.000000000000E+000 
       1    50     1    16    19 HORIZONTAL  1.000000000000E+001   2.970000000000E+001   0.000000000000E+000   4.037170000000E+002   4.056650000000E+002 
       1    51     1    15    20 HORIZONTAL  1.000000000000E+001   2.970000000000E+001   0.000000000000E+000   4.056650000000E+002   4.037170000000E+002 
       1    52     2    15    19   VERTICAL  1.000000000000E+001   0.000000000000E+000   0.000000000000E+000   0.000000000000E+000   0.000000000000E+000 
       1    53     1     5    20 HORIZONTAL  1.000000000000E+001   3.035243000000E+001   0.000000000000E+000   4.037170000000E+002   4.056650000000E+002 
       1    54     1     6    21 HORIZONTAL  1.000000000000E+001   2.979670000000E+001   0.000000000000E+000   4.056650000000E+002   4.037170000000E+002 
       1    55     2     6    20   VERTICAL  1.000000000000E+001   0.000000000000E+000   0.000000000000E+000   0.000000000000E+000   0.000000000000E+000 
       1    56     1     7    21 HORIZONTAL  1.000000000000E+001   2.973167000000E+001   0.000000000000E+000   4.056650000000E+002   4.037170000000E+002 
       1    57     2     7    20   VERTICAL  1.000000000000E+001   0.000000000000E+000   0.000000000000E+000   0.000000000000E+000   0.000000000000E+000 
       1    58     1     8    21 HORIZONTAL  1.000000000000E+001   2.970000000000E+001   0.000000000000E+000   4.056650000000E+002   4.037170000000E+002 
       1    59     2     8    20   VERTICAL  1.000000000000E+001   0.000000000000E+000   0.000000000000E+000   0.000000000000E+000   0.000000000000E+000 
       1    60     2     9    20   VERTICAL  1.000000000000E+001   0.000000000000E+000   0.000000000000E+000   0.000000000000E+000   0.000000000000E+000 
       1    61     2    10    20   VERTICAL  1.000000000000E+001   0.000000000000E+000   0.000000000000E+000   0.000000000000E+000   0.000000000000E+000 
       1    62     2    11    20   VERTICAL  1.000000000000E+001   0.000000000000E+000   0.000000000000E+000   0.000000000000E+000   0.000000000000E+000 
       1    63     2    12    20   VERTICAL  1.000000000000E+001   0.000000000000E+000   0.000000000000E+000   0.000000000000E+000   0.000000000000E+000 
       1    64     1    13    21 HORIZONTAL  1.000000000000E+001   2.970000000000E+001   0.000000000000E+000   4.056650000000E+002   4.037170000000E+002 
       1    65     2    13    20   VERTICAL  1.000000000000E+001   0.000000000000E+000   0.000000000000E+000   0.000000000000E+000   0.000000000000E+000 
       1    66     1    15    20 HORIZONTAL  1.000000000000E+001   2.970000000000E+001   0.000000000000E+000   4.037170000000E+002   4.056650000000E+002 
       1    67     1    14    21 HORIZONTAL  1.000000000000E+001   2.970000000000E+001   0.000000000000E+000   4.056650000000E+002   4.037170000000E+002 
       1    68     2    14    20   VERTICAL  1.000000000000E+001   0.000000000000E+000   0.000000000000E+000   0.000000000000E+000   0.000000000000E+000 
       1    69     1     8    21 HORIZONTAL  1.000000000000E+001   2.970000000000E+001   0.000000000000E+000   4.037170000000E+002   4.056650000000E+002 
       1    70     1     9    22 HORIZONTAL  1.000000000000E+001   2.970000000000E+001   0.000000000000E+000   4.056650000000E+002   4.037170000000E+002 
       1    71     2     9    21   VERTICAL  1.000000000000E+001   0.000000000000E+000   0.000000000000E+000   0.000000000000E+000   0.000000000000E+000 
       1    72     1    10    22 HORIZONTAL  1.000000000000E+001   2.970000000000E+001   0.000000000000E+000   4.056650000000E+002   4.037170000000E+002 
       1    73     2    10    21   VERTICAL  1.000000000000E+001   0.000000000000E+000   0.000000000000E+000   0.000000000000E+000   0.000000000000E+000 
       1    74     1    11    22 HORIZONTAL  1.000000000000E+001   2.970000000000E+001   0.000000000000E+000   4.056650000000E+002   4.037170000000E+002 
       1    75     2    11    21   VERTICAL  1.000000000000E+001   0.000000000000E+000   0.000000000000E+000   0.000000000000E+000   0.000000000000E+000 
       1    76     1    13    21 HORIZONTAL  1.000000000000E+001   2.970000000000E+001   0.000000000000E+000   4.037170000000E+002   4.056650000000E+002 
       1    77     1    12    22 HORIZONTAL  1.000000000000E+001   2.970000000000E+001   0.000000000000E+000   4.056650000000E+002   4.037170000000E+002 
       1    78     2    12    21   VERTICAL  1.000000000000E+001   0.000000000000E+000   0.000000000000E+000   0.000000000000E+000   0.000000000000E+000 
       2     1     2    23     1   VERTICAL  1.000000000000E+001   0.000000000000E+000   0.000000000000E+000   0.000000000000E+000   0.000000000000E+000 
       2     2     2    24     1   VERTICAL  1.000000000000E+001   0.000000000000E+000   0.000000000000E+000   0.000000000000E+000   0.000000000000E+000 
       2     3     2    25     1   VERTICAL  1.000000000000E+001   0.000000000000E+000   0.000000000000E+000   0.000000000000E+000   0.000000000000E+000 
       2     4     1    27     1 HORIZONTAL  1.000000000000E+001   2.020000000000E+001   0.000000000000E+000   4.037170000000E+002   4.056650000000E+002 
       2     5     2    26     1   VERTICAL  1.000000000000E+001   0.000000000000E+000   0.000000000000E+000   0.000000000000E+000   0.000000000000E+000 
       2     6     1    18     2 HORIZONTAL  1.000000000000E+001   2.020000000000E+001   0.000000000000E+000   4.037170000000E+002   4.056650000000E+002 
       2     7     1    19     3 HORIZONTAL  1.000000000000E+001   2.020000000000E+001   0.000000000000E+000   4.056650000000E+002   4.037170000000E+002 
       2     8     2    19     2   VERTICAL  1.000000000000E+001   0.000000000000E+000   0.000000000000E+000   0.000000000000E+000   0.000000000000E+000 
       2     9     1    20     3 HORIZONTAL  1.000000000000E+001   2.020000000000E+001   0.000000000000E+000   4.056650000000E+002   4.037170000000E+002 
       2    10     2    20     2   VERTICAL  1.000000000000E+001   0.000000000000E+000   0.000000000000E+000   0.000000000000E+000   0.000000000000E+000 
       2    11     1    21     3 HORIZONTAL  1.000000000000E+001   2.020000000000E+001   0.000000000000E+000   4.056650000000E+002   4.037170000000E+002 
       2    12     2    21     2   VERTICAL  1.000000000000E+001   0.000000000000E+000   0.000000000000E+000   0.000000000000E+000   0.000000000000E+000 
       2    13     2    22     2   VERTICAL  1.000000000000E+001   0.000000000000E+000   0.000000000000E+000   0.000000000000E+000   0.000000000000E+000 
       2    14     2    23     2   VERTICAL  1.000000000000E+001   0.000000000000E+000   0.000000000000E+000   0.000000000000E+000   0.000000000000E+000 
       2    15     2    24     2   VERTICAL  1.000000000000E+001   0.000000000000E+000   0.000000000000E+000   0.000000000000E+000   0.000000000000E+000 
       2    16     1    25     3 HORIZONTAL  1.000000000000E+001   2.020000000000E+001   0.000000000000E+000   4.056650000000E+002   4.037170000000E+002 
       2    17     2    25     2   VERTICAL  1.000000000000E+001   0.000000000000E+000   0.000000000000E+000   0.000000000000E+000   0.000000000000E+000 
       2    18     1    27     2 HORIZONTAL  1.000000000000E+001   2.020000000000E+001   0.000000000000E+000   4.037170000000E+002   4.056650000000E+002 
       2    19     1    26     3 HORIZONTAL  1.000000000000E+001   2.020000000000E+001   0.000000000000E+000   4.056650000000E+002   4.037170000000E+002 
       2    20     2    26     2   VERTICAL  1.000000000000E+001   0.000000000000E+000   0.000000000000E+000   0.000000000000E+000   0.000000000000E+000 
       2    21     1    21     3 HORIZONTAL  1.000000000000E+001   2.020000000000E+001   0.000000000000E+000   4.037170000000E+002   4.056650000000E+002 
       2    22     1    22     4 HORIZONTAL  1.000000000000E+001   2.020000000000E+001   0.000000000000E+000   4.056650000000E+002   4.037170000000E+002 
       2    23     2    22     3   VERTICAL  1.000000000000E+001   0.000000000000E+000   0.000000000000E+000   0.000000000000E+000   0.000000000000E+000 
       2    24     2    23     3   VERTICAL  1.000000000000E+001   0.000000000000E+000   0.000000000000E+000   0.000000000000E+000   0.000000000000E+000 
       2    25     1    25     3 HORIZONTAL  1.000000000000E+001   2.020000000000E+001   0.000000000000E+000   4.037170000000E+002   4.056650000000E+002 
       2    26     2    24     3   VERTICAL  1.000000000000E+001   0.000000000000E+000   0.000000000000E+000   0.000000000000E+000   0.000000000000E+000 
       2    27     1    22     4 HORIZONTAL  1.000000000000E+001   2.020000000000E+001   0.000000000000E+000   4.037170000000E+002   4.056650000000E+002 
       2    28     1    23     5 HORIZONTAL  1.000000000000E+001   2.020000000000E+001   0.000000000000E+000   4.056650000000E+002   4.037170000000E+002 
       2    29     2    23     4   VERTICAL  1.000000000000E+001   0.000000000000E+000   0.000000000000E+000   0.000000000000E+000   0.000000000000E+000 
       2    30     1    25     4 HORIZONTAL  1.000000000000E+001   2.020000000000E+001   0.000000000000E+000   4.037170000000E+002   4.056650000000E+002 
       2    31     1    24     5 HORIZONTAL  1.000000000000E+001   2.020000000000E+001   0.000000000000E+000   4.056650000000E+002   4.037170000000E+002 
       2    32     2    24     4   VERTICAL  1.000000000000E+001   0.000000000000E+000   0.000000000000E+000   0.000000000000E+000   0.000000000000E+000 
END CONNECTIONDATA

BEGIN PERIOD      1
       1  STATUS ACTIVE
       1  RAINFALL  1.000000000000E-002 
       1  EVAPORATION  0.000000000000E+000 
       1  RUNOFF  0.000000000000E+000 
       1  INFLOW  0.000000000000E+000 
       1  WITHDRAWAL  0.000000000000E+000 
       2  STATUS ACTIVE
       2  RAINFALL  0.000000000000E+000 
       2  EVAPORATION  0.000000000000E+000 
       2  RUNOFF  0.000000000000E+000 
       2  INFLOW  0.000000000000E+000 
       2  WITHDRAWAL  0.000000000000E+000 
END PERIOD 

