# IMS: Iterative Model Solution file created on 7/31/2019 by ModelMuse version 4.0.0.7.
BEGIN OPTIONS
  PRINT_OPTION ALL
  COMPLEXITY SIMPLE
CSV_OUTPUT FILEOUT LakeMf6.Solution.CSV
END OPTIONS

BEGIN NONLINEAR
  OUTER_HCLOSE   1.000000000000E-003 
  OUTER_MAXIMUM  10000
  UNDER_RELAXATION NONE
  BACKTRACKING_NUMBER    10
END NONLINEAR

BEGIN LINEAR
  INNER_MAXIMUM   100
  INNER_HCLOSE  1.000000000000E-004 
  INNER_RCLOSE  1.000000000000E-001 
  LINEAR_ACCELERATION CG
  RELAXATION_FACTOR  9.700000000000E-001 
  NUMBER_ORTHOGONALIZATIONS     7
  REORDERING_METHOD NONE
END LINEAR

