# Name File for MODFLOW created on 8/1/2019 by ModelMuse Version 4.0.0.7
LIST             11 ..\..\output\output.LakeNWT\LakeNWT.lst REPLACE
DATA(BINARY)      9 ..\..\output\output.LakeNWT\LakeNWT.cbc REPLACE
DIS              12 ..\..\model\model.LakeNWT\LakeNWT.dis OLD
BAS6             13 ..\..\model\model.LakeNWT\LakeNWT.bas OLD
OC               39 ..\..\model\model.LakeNWT\LakeNWT.oc OLD
DATA(BINARY)     37 ..\..\output\output.LakeNWT\LakeNWT.bhd REPLACE
DATA             38 ..\..\output\output.LakeNWT\LakeNWT.fdn REPLACE
NWT             133 ..\..\model\model.LakeNWT\LakeNWT.nwt OLD
UPW             134 ..\..\model\model.LakeNWT\LakeNWT.upw OLD
LMT6            135 ..\..\model\model.LakeNWT\LakeNWT.lmt OLD
CHD              17 ..\..\model\model.LakeNWT\LakeNWT.chd OLD
RCH              24 ..\..\model\model.LakeNWT\LakeNWT.rch OLD
LAK              28 ..\..\model\model.LakeNWT\LakeNWT.lak OLD
