# Name File for MODFLOW created on 12/3/2021 by ModelMuse Version 4.3.0.74
BEGIN OPTIONS
  LIST ..\..\output\output.LakeMf6\LakeMf6.lst
  PRINT_INPUT
  SAVE_FLOWS
END OPTIONS

BEGIN PACKAGES
  DIS6         ..\..\model\model.LakeMf6\LakeMf6.dis  DIS
  IC6          ..\..\model\model.LakeMf6\LakeMf6.ic  IC
  NPF6         ..\..\model\model.LakeMf6\LakeMf6.npf  NPF
  OC6          ..\..\model\model.LakeMf6\LakeMf6.oc  OC
  CHD6         ..\..\model\model.LakeMf6\LakeMf6.chd  CHD-1
  RCH6         ..\..\model\model.LakeMf6\LakeMf6.rch  RCH-1
  LAK6         ..\..\model\model.LakeMf6\LakeMf6.lak6  LAK-1
END PACKAGES
