# Initial Conditions Package file created on 6/24/2024 by ModelMuse version 5.2.0.18.
BEGIN OPTIONS
END OPTIONS

BEGIN GRIDDATA
  STRT LAYERED
    INTERNAL IPRN     12 # STRT Layer1
        0.000000000000E+000   0.000000000000E+000   0.000000000000E+000   5.000000000000E+001   5.000000000000E+001   5.000000000000E+001   5.000000000000E+001   5.000000000000E+001   5.000000000000E+001   5.000000000000E+001 
        5.000000000000E+001   5.010000000000E+001   5.015000000000E+001   5.015000000000E+001   5.010000000000E+001   5.000000000000E+001   5.000000000000E+001   5.000000000000E+001   5.000000000000E+001   5.000000000000E+001 
        5.000000000000E+001   4.994076690000E+001   4.963988760000E+001 
        0.000000000000E+000   0.000000000000E+000   4.917712870000E+001   4.959409650000E+001   4.972033460000E+001   4.961827960000E+001   4.970295100000E+001   4.976375350000E+001   4.959791050000E+001   4.956148910000E+001 
        4.971222300000E+001   4.964343160000E+001   4.937279020000E+001   4.915080040000E+001   4.937614090000E+001   4.949003460000E+001   4.912191090000E+001   4.904263450000E+001   4.940146410000E+001   4.916638800000E+001 
        4.908224230000E+001   4.919165810000E+001   4.893895890000E+001 
        0.000000000000E+000   0.000000000000E+000   4.859999490000E+001   4.894608260000E+001   4.910059960000E+001   4.919246650000E+001   4.927280560000E+001   4.928142170000E+001   4.912532920000E+001   4.907157940000E+001 
        4.909289210000E+001   4.900966610000E+001   4.896358020000E+001   4.867845860000E+001   4.871398430000E+001   4.851997090000E+001   4.849549180000E+001   4.836049300000E+001   4.816927030000E+001   4.797660860000E+001 
        4.776025160000E+001   4.761857860000E+001   4.746336730000E+001 
        0.000000000000E+000   0.000000000000E+000   4.751309900000E+001   4.805341020000E+001   4.826408610000E+001   4.853504260000E+001   4.865748860000E+001   4.858127170000E+001   4.850941740000E+001   4.844083210000E+001 
        4.839837840000E+001   4.832824960000E+001   4.817525870000E+001   4.805861170000E+001   4.771686940000E+001   4.762727970000E+001   4.741132400000E+001   4.721214030000E+001   4.700965820000E+001   4.666526200000E+001 
        4.627453960000E+001   4.604103620000E+001   4.576955820000E+001 
        0.000000000000E+000   0.000000000000E+000   4.633884220000E+001   4.674813840000E+001   4.728294230000E+001   4.773976510000E+001   4.791689260000E+001   4.784066330000E+001   4.774922220000E+001   4.764922260000E+001 
        4.759394900000E+001   4.756807610000E+001   4.723317530000E+001   4.710137220000E+001   4.694700910000E+001   4.679537510000E+001   4.630180430000E+001   4.611404750000E+001   4.587907590000E+001   4.535243010000E+001 
        4.510274140000E+001   4.500000000000E+001   4.481510140000E+001 
        0.000000000000E+000   0.000000000000E+000   4.544145910000E+001   4.590914690000E+001   4.626405150000E+001   4.660372850000E+001   4.703639970000E+001   4.708052470000E+001   4.690693350000E+001   4.673585280000E+001 
        4.669891350000E+001   4.677370260000E+001   4.656087750000E+001   4.646200290000E+001   4.604266270000E+001   4.584940170000E+001   4.566540660000E+001   4.470000000000E+001   4.470000000000E+001   4.470000000000E+001 
        4.470000000000E+001   4.483704960000E+001   4.487598100000E+001 
        0.000000000000E+000   0.000000000000E+000   4.487786390000E+001   4.500000000000E+001   4.546719940000E+001   4.591234690000E+001   4.611987890000E+001   4.640622050000E+001   4.608084760000E+001   4.567609020000E+001 
        4.565575470000E+001   4.584845670000E+001   4.600696690000E+001   4.572306610000E+001   4.557027270000E+001   4.520174610000E+001   4.470000000000E+001   4.470000000000E+001   4.470000000000E+001   4.470000000000E+001 
        4.470000000000E+001   4.483981610000E+001   4.489064160000E+001 
        0.000000000000E+000   0.000000000000E+000   4.470131200000E+001   4.470817300000E+001   4.485817730000E+001   4.527061010000E+001   4.568244890000E+001   4.558896650000E+001   4.537622750000E+001   4.500000000000E+001 
        4.500000000000E+001   4.523742420000E+001   4.544130150000E+001   4.521640560000E+001   4.470000000000E+001   4.470000000000E+001   4.470000000000E+001   4.470000000000E+001   4.470000000000E+001   4.470000000000E+001 
        4.470000000000E+001   4.470000000000E+001   4.470000000000E+001 
        0.000000000000E+000   0.000000000000E+000   4.458848880000E+001   4.461652540000E+001   4.452097920000E+001   4.467908720000E+001   4.513647700000E+001   4.532303450000E+001   4.514968880000E+001   4.475963370000E+001 
        4.476480580000E+001   4.510000000000E+001   4.510395520000E+001   4.489016400000E+001   4.470000000000E+001   4.470000000000E+001   4.470000000000E+001   4.470000000000E+001   4.470000000000E+001   4.470000000000E+001 
        4.470000000000E+001   4.470000000000E+001   4.470000000000E+001 
        0.000000000000E+000   0.000000000000E+000   4.395382500000E+001   4.417648150000E+001   4.409494790000E+001   4.405016580000E+001   4.470410740000E+001   4.477194280000E+001   4.490000000000E+001   4.490000000000E+001 
        4.486246500000E+001   4.484867510000E+001   4.488269680000E+001   4.470000000000E+001   4.470000000000E+001   4.470000000000E+001   4.470000000000E+001   4.470000000000E+001   4.470000000000E+001   4.470000000000E+001 
        4.470000000000E+001   4.470000000000E+001   4.470000000000E+001 
        0.000000000000E+000   0.000000000000E+000   4.246248090000E+001   4.302035880000E+001   4.284805700000E+001   4.341560490000E+001   4.359143390000E+001   4.450480710000E+001   4.490000000000E+001   4.477176730000E+001 
        4.500000000000E+001   4.486918690000E+001   4.470000000000E+001   4.470000000000E+001   4.470000000000E+001   4.470000000000E+001   4.470000000000E+001   4.470000000000E+001   4.470000000000E+001   4.470000000000E+001 
        4.470000000000E+001   4.470000000000E+001   4.470000000000E+001 
        0.000000000000E+000   4.001879190000E+001   4.018904900000E+001   4.120108530000E+001   4.171451090000E+001   4.188697850000E+001   4.214997450000E+001   4.270955650000E+001   4.354341160000E+001   4.409773240000E+001 
        4.470000000000E+001   4.470000000000E+001   4.470000000000E+001   4.470000000000E+001   4.470000000000E+001   4.470000000000E+001   4.470000000000E+001   4.470000000000E+001   4.470000000000E+001   4.470000000000E+001 
        4.470000000000E+001   4.470000000000E+001   4.470000000000E+001 
        0.000000000000E+000   3.803183270000E+001   3.831217170000E+001   3.855770880000E+001   3.876404950000E+001   3.925328500000E+001   3.978198940000E+001   4.115136200000E+001   4.212946430000E+001   4.302420590000E+001 
        4.470000000000E+001   4.470000000000E+001   4.470000000000E+001   4.470000000000E+001   4.470000000000E+001   4.470000000000E+001   4.470000000000E+001   4.470000000000E+001   4.470000000000E+001   4.470000000000E+001 
        4.470000000000E+001   4.470000000000E+001   4.470000000000E+001 
        0.000000000000E+000   3.701448090000E+001   3.721568620000E+001   3.745024020000E+001   3.769573530000E+001   3.795529790000E+001   3.878422910000E+001   3.973898300000E+001   4.077802100000E+001   4.186196030000E+001 
        4.347788160000E+001   4.470000000000E+001   4.470000000000E+001   4.470000000000E+001   4.470000000000E+001   4.470000000000E+001   4.470000000000E+001   4.470000000000E+001   4.470000000000E+001   4.470000000000E+001 
        4.470000000000E+001   4.470000000000E+001   4.470000000000E+001 
        0.000000000000E+000   3.594449530000E+001   3.642159380000E+001   3.663431080000E+001   3.687544640000E+001   3.713364340000E+001   3.739964150000E+001   3.826949640000E+001   3.933175570000E+001   4.044293040000E+001 
        4.170018720000E+001   4.336718190000E+001   4.416049800000E+001   4.470000000000E+001   4.470000000000E+001   4.470000000000E+001   4.470000000000E+001   4.470000000000E+001   4.470000000000E+001   4.470000000000E+001 
        4.470000000000E+001   4.470000000000E+001   4.470000000000E+001 
        0.000000000000E+000   3.556268430000E+001   3.562738520000E+001   3.572309470000E+001   3.628952280000E+001   3.652147730000E+001   3.675356140000E+001   3.697391080000E+001   3.788066730000E+001   3.901558470000E+001 
        4.038498860000E+001   4.230865030000E+001   4.329508150000E+001   4.361367890000E+001   4.423183340000E+001   4.470000000000E+001   4.470000000000E+001   4.470000000000E+001   4.470000000000E+001   4.470000000000E+001 
        4.470000000000E+001   4.470000000000E+001   4.470000000000E+001 
        0.000000000000E+000   3.532780000000E+001   3.539870030000E+001   3.549292860000E+001   3.557943500000E+001   3.565180060000E+001   3.577126650000E+001   3.592081010000E+001   3.670263800000E+001   3.773103530000E+001 
        3.823864220000E+001   4.173158450000E+001   4.288891440000E+001   4.320665630000E+001   4.361377990000E+001   4.424027850000E+001   4.442056130000E+001   4.456547230000E+001   4.463359550000E+001   4.465667940000E+001 
        4.462590930000E+001   4.463474900000E+001   4.462302890000E+001 
        0.000000000000E+000   3.520000000000E+001   3.520000000000E+001   3.520000000000E+001   3.520000000000E+001   3.520000000000E+001   3.520000000000E+001   3.569274540000E+001   3.580598840000E+001   3.663382490000E+001 
        3.772902140000E+001   3.964038990000E+001   4.158700660000E+001   4.216059050000E+001   4.314555280000E+001   4.357010510000E+001   4.392371530000E+001   4.421032330000E+001   4.449553860000E+001   4.461177010000E+001 
        4.456707460000E+001   4.466166630000E+001   4.449791270000E+001 
        0.000000000000E+000   3.530000000000E+001   3.520000000000E+001   3.520000000000E+001   3.520000000000E+001   3.520000000000E+001   3.520000000000E+001   3.520000000000E+001   3.520000000000E+001   3.631399450000E+001 
        3.670003260000E+001   3.836096060000E+001   3.968641800000E+001   4.093872440000E+001   4.201394160000E+001   4.252439200000E+001   4.303844520000E+001   4.374415020000E+001   4.404656930000E+001   4.418066760000E+001 
        4.422140520000E+001   4.422272510000E+001   4.402298090000E+001 
        0.000000000000E+000   3.530000000000E+001   3.520000000000E+001   3.520000000000E+001   3.520000000000E+001   3.520000000000E+001   3.520000000000E+001   3.520000000000E+001   3.520000000000E+001   3.565907250000E+001 
        3.638103050000E+001   3.727726840000E+001   3.890319610000E+001   3.955712420000E+001   4.062659880000E+001   4.153173280000E+001   4.204636500000E+001   4.256961130000E+001   4.299133800000E+001   4.339212690000E+001 
        4.343477250000E+001   4.337862480000E+001   4.323024510000E+001 
        0.000000000000E+000   3.530000000000E+001   3.530000000000E+001   3.520000000000E+001   3.520000000000E+001   3.520000000000E+001   3.520000000000E+001   3.520000000000E+001   3.520000000000E+001   3.520000000000E+001 
        3.606685980000E+001   3.675913510000E+001   3.766785090000E+001   3.862953960000E+001   3.949022170000E+001   3.986573990000E+001   4.061526290000E+001   4.118266110000E+001   4.166758570000E+001   4.189801810000E+001 
        4.207441650000E+001   4.191519200000E+001   4.183581400000E+001 
        0.000000000000E+000   3.530000000000E+001   3.530000000000E+001   3.530000000000E+001   3.520000000000E+001   3.520000000000E+001   3.520000000000E+001   3.520000000000E+001   3.520000000000E+001   3.520000000000E+001 
        3.575143150000E+001   3.597364630000E+001   3.667653290000E+001   3.741681010000E+001   3.792574700000E+001   3.827066240000E+001   3.854752180000E+001   3.943893220000E+001   4.009198890000E+001   4.026298520000E+001 
        3.991547940000E+001   3.947343590000E+001   3.968929140000E+001 
        3.530000000000E+001   3.530000000000E+001   3.530000000000E+001   3.530000000000E+001   3.530000000000E+001   3.520000000000E+001   3.520000000000E+001   3.520000000000E+001   3.520000000000E+001   3.520000000000E+001 
        3.531845410000E+001   3.562663860000E+001   3.622703060000E+001   3.680554980000E+001   3.692769710000E+001   3.648821630000E+001   3.662144960000E+001   3.765564190000E+001   3.863202630000E+001   3.873005990000E+001 
        3.784222650000E+001   3.686354650000E+001   3.710612590000E+001 
        3.530000000000E+001   3.530000000000E+001   3.530000000000E+001   3.530000000000E+001   3.530000000000E+001   3.520000000000E+001   3.520000000000E+001   3.520000000000E+001   3.520000000000E+001   3.520000000000E+001 
        3.519078940000E+001   3.522230880000E+001   3.555008480000E+001   3.599369000000E+001   3.601183870000E+001   3.554476890000E+001   3.537627610000E+001   3.622906110000E+001   3.736862860000E+001   3.744541450000E+001 
        3.656944680000E+001   3.534530760000E+001   3.569991810000E+001 
        3.530000000000E+001   3.530000000000E+001   3.530000000000E+001   3.530000000000E+001   3.520000000000E+001   3.520000000000E+001   3.520000000000E+001   3.520000000000E+001   3.520000000000E+001   3.511626380000E+001 
        3.511882890000E+001   3.495887010000E+001   3.501942730000E+001   3.562420640000E+001   3.557811810000E+001   3.536558890000E+001   3.539380220000E+001   3.596469740000E+001   3.664537370000E+001   3.672626670000E+001 
        3.613242600000E+001   3.552773150000E+001   3.576020480000E+001 
        3.530000000000E+001   3.530000000000E+001   3.520000000000E+001   3.520000000000E+001   3.520000000000E+001   3.520000000000E+001   3.520000000000E+001   3.494899460000E+001   3.491898730000E+001   3.473892620000E+001 
        3.477764810000E+001   3.466835580000E+001   3.430157220000E+001   3.460158400000E+001   3.502808620000E+001   3.547183690000E+001   3.539245720000E+001   3.574230780000E+001   3.599846550000E+001   3.657873500000E+001 
        3.635161100000E+001   3.611113610000E+001   3.620407920000E+001 
        3.530000000000E+001   3.530000000000E+001   3.520000000000E+001   3.520000000000E+001   3.520000000000E+001   3.520000000000E+001   3.483297240000E+001   3.475254220000E+001   3.431251090000E+001   3.429059010000E+001 
        3.427605220000E+001   3.393645270000E+001   3.381960060000E+001   3.416253040000E+001   3.407718700000E+001   3.425381910000E+001   3.517135270000E+001   3.553214090000E+001   3.567764810000E+001   3.578792670000E+001 
        3.583463570000E+001   3.634987090000E+001   3.643790800000E+001 
        3.512548370000E+001   3.512309590000E+001   3.495720360000E+001   3.479169750000E+001   3.469400430000E+001   3.415372610000E+001   3.403618050000E+001   3.347670150000E+001   3.335148350000E+001   3.330425890000E+001 
        3.329613940000E+001   3.321076300000E+001   3.315856390000E+001   3.289638730000E+001   3.336696840000E+001   3.351129060000E+001   3.399647700000E+001   3.444375470000E+001   3.514172640000E+001   3.527207710000E+001 
        3.539428130000E+001   3.550729080000E+001   3.627504700000E+001 
        3.491424000000E+001   3.489793270000E+001   3.449126010000E+001   3.412848720000E+001   3.379508130000E+001   3.355026990000E+001   3.288528510000E+001   3.267315530000E+001   3.251374710000E+001   3.244336570000E+001 
        3.203301080000E+001   3.200367870000E+001   3.173346450000E+001   3.181801470000E+001   3.252736630000E+001   3.265655170000E+001   3.313391120000E+001   3.325828550000E+001   3.373542910000E+001   3.450808080000E+001 
        3.467284130000E+001   3.443859830000E+001   3.459894970000E+001 
        3.497411370000E+001   3.428858430000E+001   3.348948480000E+001   3.298698040000E+001   3.301609850000E+001   3.230274150000E+001   3.193857240000E+001   3.169595030000E+001   3.154533250000E+001   3.110526470000E+001 
        3.104582580000E+001   3.103563650000E+001   3.082166630000E+001   3.096089550000E+001   3.108946370000E+001   3.174992080000E+001   3.183823150000E+001   3.219094250000E+001   3.233872680000E+001   3.249816320000E+001 
        3.285586770000E+001   3.302970400000E+001   3.416378790000E+001 
        3.422853690000E+001   3.295234320000E+001   3.185778090000E+001   3.164508220000E+001   3.133855190000E+001   3.098854570000E+001   3.081139430000E+001   3.055770340000E+001   3.024301730000E+001   3.014452900000E+001 
        3.000000000000E+001   2.980884440000E+001   2.990000000000E+001   3.015756890000E+001   3.031128530000E+001   3.045894450000E+001   3.033584840000E+001   3.128314510000E+001   3.142148510000E+001   3.185483960000E+001 
        3.206504900000E+001   3.230579520000E+001   3.316091050000E+001 
        2.800000000000E+001   2.800000000000E+001   2.800000000000E+001   2.800000000000E+001   3.039448570000E+001   3.000000000000E+001   2.936979730000E+001   2.933292070000E+001   2.937432770000E+001   2.934688550000E+001 
        2.910708140000E+001   2.893674920000E+001   2.917686410000E+001   2.948867030000E+001   2.965392440000E+001   2.952712620000E+001   2.965209310000E+001   3.029025900000E+001   3.044211640000E+001   3.049093490000E+001 
        3.099613510000E+001   3.124547730000E+001   3.157992630000E+001 
        2.800000000000E+001   2.800000000000E+001   2.800000000000E+001   2.800000000000E+001   2.800000000000E+001   2.800000000000E+001   2.800000000000E+001   2.800000000000E+001   2.800000000000E+001   2.800000000000E+001 
        2.800000000000E+001   2.826209230000E+001   2.863514770000E+001   2.902319510000E+001   2.902401260000E+001   2.894350670000E+001   2.895635020000E+001   2.914885300000E+001   2.958915680000E+001   2.963266280000E+001 
        3.000000000000E+001   3.021146670000E+001   3.060230070000E+001 
        0.000000000000E+000   0.000000000000E+000   0.000000000000E+000   0.000000000000E+000   0.000000000000E+000   0.000000000000E+000   0.000000000000E+000   2.800000000000E+001   2.800000000000E+001   2.800000000000E+001 
        2.800000000000E+001   2.800000000000E+001   2.800000000000E+001   2.800000000000E+001   2.800000000000E+001   2.800000000000E+001   2.800000000000E+001   2.800000000000E+001   2.800000000000E+001   2.902383450000E+001 
        2.898968940000E+001   2.927037760000E+001   2.973060510000E+001 
        0.000000000000E+000   0.000000000000E+000   0.000000000000E+000   0.000000000000E+000   0.000000000000E+000   0.000000000000E+000   0.000000000000E+000   0.000000000000E+000   0.000000000000E+000   0.000000000000E+000 
        0.000000000000E+000   0.000000000000E+000   0.000000000000E+000   2.800000000000E+001   2.800000000000E+001   2.800000000000E+001   2.800000000000E+001   2.800000000000E+001   2.800000000000E+001   2.800000000000E+001 
        2.800000000000E+001   2.800000000000E+001   2.800000000000E+001 
        0.000000000000E+000   0.000000000000E+000   0.000000000000E+000   0.000000000000E+000   0.000000000000E+000   0.000000000000E+000   0.000000000000E+000   0.000000000000E+000   0.000000000000E+000   0.000000000000E+000 
        0.000000000000E+000   0.000000000000E+000   0.000000000000E+000   0.000000000000E+000   0.000000000000E+000   0.000000000000E+000   0.000000000000E+000   0.000000000000E+000   0.000000000000E+000   0.000000000000E+000 
        2.800000000000E+001   2.800000000000E+001   2.800000000000E+001 
    INTERNAL IPRN     12 # STRT Layer2
        0.000000000000E+000   0.000000000000E+000   0.000000000000E+000   5.000000000000E+001   5.000000000000E+001   5.000000000000E+001   5.000000000000E+001   5.000000000000E+001   5.000000000000E+001   5.000000000000E+001 
        5.000000000000E+001   5.010000000000E+001   5.015000000000E+001   5.015000000000E+001   5.010000000000E+001   5.000000000000E+001   5.000000000000E+001   5.000000000000E+001   5.000000000000E+001   5.000000000000E+001 
        5.000000000000E+001   4.994076690000E+001   4.963988760000E+001 
        0.000000000000E+000   0.000000000000E+000   4.917712870000E+001   4.959409650000E+001   4.972033460000E+001   4.961827960000E+001   4.970295100000E+001   4.976375350000E+001   4.959791050000E+001   4.956148910000E+001 
        4.971222300000E+001   4.964343160000E+001   4.937279020000E+001   4.915080040000E+001   4.937614090000E+001   4.949003460000E+001   4.912191090000E+001   4.904263450000E+001   4.940146410000E+001   4.916638800000E+001 
        4.908224230000E+001   4.919165810000E+001   4.893895890000E+001 
        0.000000000000E+000   0.000000000000E+000   4.859999490000E+001   4.894608260000E+001   4.910059960000E+001   4.919246650000E+001   4.927280560000E+001   4.928142170000E+001   4.912532920000E+001   4.907157940000E+001 
        4.909289210000E+001   4.900966610000E+001   4.896358020000E+001   4.867845860000E+001   4.871398430000E+001   4.851997090000E+001   4.849549180000E+001   4.836049300000E+001   4.816927030000E+001   4.797660860000E+001 
        4.776025160000E+001   4.761857860000E+001   4.746336730000E+001 
        0.000000000000E+000   0.000000000000E+000   4.751309900000E+001   4.805341020000E+001   4.826408610000E+001   4.853504260000E+001   4.865748860000E+001   4.858127170000E+001   4.850941740000E+001   4.844083210000E+001 
        4.839837840000E+001   4.832824960000E+001   4.817525870000E+001   4.805861170000E+001   4.771686940000E+001   4.762727970000E+001   4.741132400000E+001   4.721214030000E+001   4.700965820000E+001   4.666526200000E+001 
        4.627453960000E+001   4.604103620000E+001   4.576955820000E+001 
        0.000000000000E+000   0.000000000000E+000   4.633884220000E+001   4.674813840000E+001   4.728294230000E+001   4.773976510000E+001   4.791689260000E+001   4.784066330000E+001   4.774922220000E+001   4.764922260000E+001 
        4.759394900000E+001   4.756807610000E+001   4.723317530000E+001   4.710137220000E+001   4.694700910000E+001   4.679537510000E+001   4.630180430000E+001   4.611404750000E+001   4.587907590000E+001   4.535243010000E+001 
        4.510274140000E+001   4.500000000000E+001   4.481510140000E+001 
        0.000000000000E+000   0.000000000000E+000   4.544145910000E+001   4.590914690000E+001   4.626405150000E+001   4.660372850000E+001   4.703639970000E+001   4.708052470000E+001   4.690693350000E+001   4.673585280000E+001 
        4.669891350000E+001   4.677370260000E+001   4.656087750000E+001   4.646200290000E+001   4.604266270000E+001   4.584940170000E+001   4.566540660000E+001   4.470000000000E+001   4.470000000000E+001   4.470000000000E+001 
        4.470000000000E+001   4.483704960000E+001   4.487598100000E+001 
        0.000000000000E+000   0.000000000000E+000   4.487786390000E+001   4.500000000000E+001   4.546719940000E+001   4.591234690000E+001   4.611987890000E+001   4.640622050000E+001   4.608084760000E+001   4.567609020000E+001 
        4.565575470000E+001   4.584845670000E+001   4.600696690000E+001   4.572306610000E+001   4.557027270000E+001   4.520174610000E+001   4.470000000000E+001   4.470000000000E+001   4.470000000000E+001   4.470000000000E+001 
        4.470000000000E+001   4.483981610000E+001   4.489064160000E+001 
        0.000000000000E+000   0.000000000000E+000   4.470131200000E+001   4.470817300000E+001   4.485817730000E+001   4.527061010000E+001   4.568244890000E+001   4.558896650000E+001   4.537622750000E+001   4.500000000000E+001 
        4.500000000000E+001   4.523742420000E+001   4.544130150000E+001   4.521640560000E+001   4.470000000000E+001   4.470000000000E+001   4.470000000000E+001   4.470000000000E+001   4.470000000000E+001   4.470000000000E+001 
        4.470000000000E+001   4.470000000000E+001   4.470000000000E+001 
        0.000000000000E+000   0.000000000000E+000   4.458848880000E+001   4.461652540000E+001   4.452097920000E+001   4.467908720000E+001   4.513647700000E+001   4.532303450000E+001   4.514968880000E+001   4.475963370000E+001 
        4.476480580000E+001   4.510000000000E+001   4.510395520000E+001   4.489016400000E+001   4.470000000000E+001   4.470000000000E+001   4.470000000000E+001   4.470000000000E+001   4.470000000000E+001   4.470000000000E+001 
        4.470000000000E+001   4.470000000000E+001   4.470000000000E+001 
        0.000000000000E+000   0.000000000000E+000   4.395382500000E+001   4.417648150000E+001   4.409494790000E+001   4.405016580000E+001   4.470410740000E+001   4.477194280000E+001   4.490000000000E+001   4.490000000000E+001 
        4.486246500000E+001   4.484867510000E+001   4.488269680000E+001   4.470000000000E+001   4.470000000000E+001   4.470000000000E+001   4.470000000000E+001   4.470000000000E+001   4.470000000000E+001   4.470000000000E+001 
        4.470000000000E+001   4.470000000000E+001   4.470000000000E+001 
        0.000000000000E+000   0.000000000000E+000   4.246248090000E+001   4.302035880000E+001   4.284805700000E+001   4.341560490000E+001   4.359143390000E+001   4.450480710000E+001   4.490000000000E+001   4.477176730000E+001 
        4.500000000000E+001   4.486918690000E+001   4.470000000000E+001   4.470000000000E+001   4.470000000000E+001   4.470000000000E+001   4.470000000000E+001   4.470000000000E+001   4.470000000000E+001   4.470000000000E+001 
        4.470000000000E+001   4.470000000000E+001   4.470000000000E+001 
        0.000000000000E+000   4.001879190000E+001   4.018904900000E+001   4.120108530000E+001   4.171451090000E+001   4.188697850000E+001   4.214997450000E+001   4.270955650000E+001   4.354341160000E+001   4.409773240000E+001 
        4.470000000000E+001   4.470000000000E+001   4.470000000000E+001   4.470000000000E+001   4.470000000000E+001   4.470000000000E+001   4.470000000000E+001   4.470000000000E+001   4.470000000000E+001   4.470000000000E+001 
        4.470000000000E+001   4.470000000000E+001   4.470000000000E+001 
        0.000000000000E+000   3.803183270000E+001   3.831217170000E+001   3.855770880000E+001   3.876404950000E+001   3.925328500000E+001   3.978198940000E+001   4.115136200000E+001   4.212946430000E+001   4.302420590000E+001 
        4.470000000000E+001   4.470000000000E+001   4.470000000000E+001   4.470000000000E+001   4.470000000000E+001   4.470000000000E+001   4.470000000000E+001   4.470000000000E+001   4.470000000000E+001   4.470000000000E+001 
        4.470000000000E+001   4.470000000000E+001   4.470000000000E+001 
        0.000000000000E+000   3.701448090000E+001   3.721568620000E+001   3.745024020000E+001   3.769573530000E+001   3.795529790000E+001   3.878422910000E+001   3.973898300000E+001   4.077802100000E+001   4.186196030000E+001 
        4.347788160000E+001   4.470000000000E+001   4.470000000000E+001   4.470000000000E+001   4.470000000000E+001   4.470000000000E+001   4.470000000000E+001   4.470000000000E+001   4.470000000000E+001   4.470000000000E+001 
        4.470000000000E+001   4.470000000000E+001   4.470000000000E+001 
        0.000000000000E+000   3.594449530000E+001   3.642159380000E+001   3.663431080000E+001   3.687544640000E+001   3.713364340000E+001   3.739964150000E+001   3.826949640000E+001   3.933175570000E+001   4.044293040000E+001 
        4.170018720000E+001   4.336718190000E+001   4.416049800000E+001   4.470000000000E+001   4.470000000000E+001   4.470000000000E+001   4.470000000000E+001   4.470000000000E+001   4.470000000000E+001   4.470000000000E+001 
        4.470000000000E+001   4.470000000000E+001   4.470000000000E+001 
        0.000000000000E+000   3.556268430000E+001   3.562738520000E+001   3.572309470000E+001   3.628952280000E+001   3.652147730000E+001   3.675356140000E+001   3.697391080000E+001   3.788066730000E+001   3.901558470000E+001 
        4.038498860000E+001   4.230865030000E+001   4.329508150000E+001   4.361367890000E+001   4.423183340000E+001   4.470000000000E+001   4.470000000000E+001   4.470000000000E+001   4.470000000000E+001   4.470000000000E+001 
        4.470000000000E+001   4.470000000000E+001   4.470000000000E+001 
        0.000000000000E+000   3.532780000000E+001   3.539870030000E+001   3.549292860000E+001   3.557943500000E+001   3.565180060000E+001   3.577126650000E+001   3.592081010000E+001   3.670263800000E+001   3.773103530000E+001 
        3.823864220000E+001   4.173158450000E+001   4.288891440000E+001   4.320665630000E+001   4.361377990000E+001   4.424027850000E+001   4.442056130000E+001   4.456547230000E+001   4.463359550000E+001   4.465667940000E+001 
        4.462590930000E+001   4.463474900000E+001   4.462302890000E+001 
        0.000000000000E+000   3.520000000000E+001   3.520000000000E+001   3.520000000000E+001   3.520000000000E+001   3.520000000000E+001   3.520000000000E+001   3.569274540000E+001   3.580598840000E+001   3.663382490000E+001 
        3.772902140000E+001   3.964038990000E+001   4.158700660000E+001   4.216059050000E+001   4.314555280000E+001   4.357010510000E+001   4.392371530000E+001   4.421032330000E+001   4.449553860000E+001   4.461177010000E+001 
        4.456707460000E+001   4.466166630000E+001   4.449791270000E+001 
        0.000000000000E+000   3.530000000000E+001   3.520000000000E+001   3.520000000000E+001   3.520000000000E+001   3.520000000000E+001   3.520000000000E+001   3.520000000000E+001   3.520000000000E+001   3.631399450000E+001 
        3.670003260000E+001   3.836096060000E+001   3.968641800000E+001   4.093872440000E+001   4.201394160000E+001   4.252439200000E+001   4.303844520000E+001   4.374415020000E+001   4.404656930000E+001   4.418066760000E+001 
        4.422140520000E+001   4.422272510000E+001   4.402298090000E+001 
        0.000000000000E+000   3.530000000000E+001   3.520000000000E+001   3.520000000000E+001   3.520000000000E+001   3.520000000000E+001   3.520000000000E+001   3.520000000000E+001   3.520000000000E+001   3.565907250000E+001 
        3.638103050000E+001   3.727726840000E+001   3.890319610000E+001   3.955712420000E+001   4.062659880000E+001   4.153173280000E+001   4.204636500000E+001   4.256961130000E+001   4.299133800000E+001   4.339212690000E+001 
        4.343477250000E+001   4.337862480000E+001   4.323024510000E+001 
        0.000000000000E+000   3.530000000000E+001   3.530000000000E+001   3.520000000000E+001   3.520000000000E+001   3.520000000000E+001   3.520000000000E+001   3.520000000000E+001   3.520000000000E+001   3.520000000000E+001 