# OBS: Observation Utility file created on 6/18/2020 by ModelMuse version 4.2.0.19.
BEGIN OPTIONS
    DIGITS     10
    PRINT_INPUT
END OPTIONS

BEGIN CONTINUOUS FILEOUT LakeMf6.lak_stage_ob.csv
 'ls_Lak1' stage Lake1 
 'ls_Lak2' stage Lake2 
END CONTINUOUS

BEGIN CONTINUOUS FILEOUT LakeMf6.lak_volume_ob.csv
 'lv_Lak1' volume Lake1 
 'lv_Lak2' volume Lake2 
END CONTINUOUS

