# TDIS file created on 8/26/2019 by ModelMuse version 4.1.0.0.

BEGIN OPTIONS
  TIME_UNITS days
END OPTIONS

BEGIN DIMENSIONS
  NPER     1
END DIMENSIONS

BEGIN PERIODDATA
    9.131000000000E+003      1  1.000000000000E+000  # perlen nstp tsmult, Stress period      1
END PERIODDATA
