# Name File for MODFLOW created on 2/1/2017 by ModelMuse Version 3.8.1.27
LIST             11 ..\..\output\output.Lgr_Test4\Lgr_Test4.lst REPLACE
DATA(BINARY)      9 ..\..\output\output.Lgr_Test4\Lgr_Test4.cbc REPLACE
DATA            131 ..\..\output\output.Lgr_Test4\Lgr_Test4.bfh_head REPLACE
DATA            132 ..\..\output\output.Lgr_Test4\Lgr_Test4.bfh_flux REPLACE
DIS              12 ..\..\model\model.Lgr_Test4\Lgr_Test4.dis OLD
BAS6             13 ..\..\model\model.Lgr_Test4\Lgr_Test4.bas OLD
OC               39 ..\..\model\model.Lgr_Test4\Lgr_Test4.oc OLD
DATA             37 ..\..\output\output.Lgr_Test4\Lgr_Test4.fhd REPLACE
DATA             38 ..\..\output\output.Lgr_Test4\Lgr_Test4.fdn REPLACE
SIP              35 ..\..\model\model.Lgr_Test4\Lgr_Test4.sip OLD
BCF6             64 ..\..\model\model.Lgr_Test4\Lgr_Test4.bcf OLD
CHD              17 ..\..\model\model.Lgr_Test4\Lgr_Test4.chd OLD
WEL              20 ..\..\model\model.Lgr_Test4\Lgr_Test4.wel OLD
DRN              22 ..\..\model\model.Lgr_Test4\Lgr_Test4.drn OLD
RCH              24 ..\..\model\model.Lgr_Test4\Lgr_Test4.rch OLD
HFB6             43 ..\..\model\model.Lgr_Test4\Lgr_Test4.hfb OLD
