# Name File for MODFLOW created on 5/25/2021 by ModelMuse Version 4.3.0.47
LIST           1011 Lgr_Test10_Child_1.lst REPLACE
DATA(BINARY)   1009 Lgr_Test10_Child_1.cbc REPLACE
DIS            1012 Lgr_Test10_Child_1.dis OLD
BAS6           1013 Lgr_Test10_Child_1.bas OLD
OC             1039 Lgr_Test10_Child_1.oc OLD
DATA           1037 Lgr_Test10_Child_1.fhd REPLACE
DATA           1038 Lgr_Test10_Child_1.fdn REPLACE
SIP            1035 Lgr_Test10_Child_1.sip OLD
BCF6           1064 Lgr_Test10_Child_1.bcf OLD
RES            1027 Lgr_Test10_Child_1.resv OLD
