# Name File for MODFLOW created on 12/14/2015 by ModelMuse
LIST             11 Lgr_Test1.lst REPLACE
DATA(BINARY)      9 Lgr_Test1.cbc REPLACE
DATA            131 Lgr_Test1.bfh_head REPLACE
DATA            132 Lgr_Test1.bfh_flux REPLACE
DIS              12 Lgr_Test1.dis OLD
BAS6             13 Lgr_Test1.bas OLD
OC               39 Lgr_Test1.oc OLD
DATA             37 Lgr_Test1.fhd REPLACE
DATA             38 Lgr_Test1.fdn REPLACE
SIP              35 Lgr_Test1.sip OLD
LPF              14 Lgr_Test1.lpf OLD
CHD              17 Lgr_Test1.chd OLD
WEL              20 Lgr_Test1.wel OLD
DRN              22 Lgr_Test1.drn OLD
RCH              24 Lgr_Test1.rch OLD
ZONE             15 Lgr_Test1.zon OLD
MULT             16 Lgr_Test1.mlt OLD
PVAL             52 Lgr_Test1.pval OLD
