# Name File for MODFLOW created on 12/14/2015 by ModelMuse
LIST             11 Lgr_Test6.lst REPLACE
DATA(BINARY)      9 Lgr_Test6.cbc REPLACE
DATA            131 Lgr_Test6.bfh_head REPLACE
DATA            132 Lgr_Test6.bfh_flux REPLACE
DIS              12 Lgr_Test6.dis OLD
BAS6             13 Lgr_Test6.bas OLD
OC               39 Lgr_Test6.oc OLD
DATA             37 Lgr_Test6.fhd REPLACE
DATA             38 Lgr_Test6.fdn REPLACE
PCG              18 Lgr_Test6.pcg OLD
HUF2             53 Lgr_Test6.huf OLD
DATA             54 Lgr_Test6.huf_fhd REPLACE
CHD              17 Lgr_Test6.chd OLD
GHB              19 Lgr_Test6.ghb OLD
WEL              20 Lgr_Test6.wel OLD
DRN              22 Lgr_Test6.drn OLD
RCH              24 Lgr_Test6.rch OLD
EVT              25 Lgr_Test6.evt OLD
ZONE             15 Lgr_Test6.zon OLD
MULT             16 Lgr_Test6.mlt OLD
PVAL             52 Lgr_Test6.pval OLD
