# Name File for MODFLOW created on 2/1/2017 by ModelMuse Version 3.8.1.27
LIST           1011 ..\..\output\output.Lgr_Test5_Child_1\Lgr_Test5_Child_1.lst REPLACE
DATA(BINARY)   1009 ..\..\output\output.Lgr_Test5_Child_1\Lgr_Test5_Child_1.cbc REPLACE
DIS            1012 ..\..\model\model.Lgr_Test5_Child_1\Lgr_Test5_Child_1.dis OLD
BAS6           1013 ..\..\model\model.Lgr_Test5_Child_1\Lgr_Test5_Child_1.bas OLD
OC             1039 ..\..\model\model.Lgr_Test5_Child_1\Lgr_Test5_Child_1.oc OLD
DATA           1037 ..\..\output\output.Lgr_Test5_Child_1\Lgr_Test5_Child_1.fhd REPLACE
DATA           1038 ..\..\output\output.Lgr_Test5_Child_1\Lgr_Test5_Child_1.fdn REPLACE
PCG            1018 ..\..\model\model.Lgr_Test5_Child_1\Lgr_Test5_Child_1.pcg OLD
LPF            1014 ..\..\model\model.Lgr_Test5_Child_1\Lgr_Test5_Child_1.lpf OLD
CHD            1017 ..\..\model\model.Lgr_Test5_Child_1\Lgr_Test5_Child_1.chd OLD
DRT            1023 ..\..\model\model.Lgr_Test5_Child_1\Lgr_Test5_Child_1.drt OLD
RCH            1024 ..\..\model\model.Lgr_Test5_Child_1\Lgr_Test5_Child_1.rch OLD
ETS            1026 ..\..\model\model.Lgr_Test5_Child_1\Lgr_Test5_Child_1.ets OLD
ZONE           1015 ..\..\model\model.Lgr_Test5_Child_1\Lgr_Test5_Child_1.zon OLD
MULT           1016 ..\..\model\model.Lgr_Test5_Child_1\Lgr_Test5_Child_1.mlt OLD
PVAL           1052 ..\..\model\model.Lgr_Test5_Child_1\Lgr_Test5_Child_1.pval OLD
