# Name File for MODFLOW created on 12/14/2015 by ModelMuse
LIST             11 Lgr_Test9.lst REPLACE
DATA(BINARY)      9 Lgr_Test9.cbc REPLACE
DATA            131 Lgr_Test9.bfh_head REPLACE
DATA            132 Lgr_Test9.bfh_flux REPLACE
DIS              12 Lgr_Test9.dis OLD
BAS6             13 Lgr_Test9.bas OLD
OC               39 Lgr_Test9.oc OLD
DATA             37 Lgr_Test9.fhd REPLACE
DATA             38 Lgr_Test9.fdn REPLACE
SIP              35 Lgr_Test9.sip OLD
LPF              14 Lgr_Test9.lpf OLD
GHB              19 Lgr_Test9.ghb OLD
WEL              20 Lgr_Test9.wel OLD
SFR              29 Lgr_Test9.sfr OLD
UZF              31 Lgr_Test9.uzf OLD
DATA          20206 Lgr_Test91.uzfg REPLACE
DATA          20207 Lgr_Test92.uzfg REPLACE
DATA          20208 Lgr_Test93.uzfg REPLACE
DATA          20209 Lgr_Test94.uzfg REPLACE
DATA          20214 Lgr_Test9.sfrg1 REPLACE
DATA          20215 Lgr_Test9.sfrg2 REPLACE
DATA          20216 Lgr_Test9.sfrg3 REPLACE
DATA          20217 Lgr_Test9.sfrg4 REPLACE
DATA          20218 Lgr_Test9.sfrg5 REPLACE
DATA          20219 Lgr_Test9.sfrg6 REPLACE
DATA          20220 Lgr_Test9.sfrg7 REPLACE
DATA          20221 Lgr_Test9.sfrg8 REPLACE
GAGE             40 Lgr_Test9.gag OLD
