# LGR Control File for MODFLOW-LGR created on 12/12/2015 by ModelMuse
LGR
     2 # NGRIDS
Lgr_Test8.nam # NAME FILE
PARENTONLY
   131   132 # Data set 5 IUPBHSV, IUPBFSV
Lgr_Test8_Child_1.nam # Data set 6 NAME FILE
CHILDONLY # Data set 7 GRIDSTATUS
     0    -2     0     0 # Data set 8 ISHFLG IBFLG IUCBHSV IUCBFSV
     1     1 # Data set 9 MXLGRITER IOUTLGR
  5.000000000000E-001   5.000000000000E-001  # Data set 10 RELAXH RELAXF
  5.000000000000E-003   5.000000000000E-002  # Data set 11 HCLOSELGR FCLOSELGR
     1     5     2 # Data set 12 NPLBEG NPRBEG NPCBEG
     1    11     8 # Data set 13 NPLEND NPREND NPCEND
     3 # Data set 14 NCPP
     3 # Data set 15 NCPPL
