# Name File for MODFLOW created on 12/14/2015 by ModelMuse
LIST             11 Lgr_Test5.lst REPLACE
DATA(BINARY)      9 Lgr_Test5.cbc REPLACE
DATA            131 Lgr_Test5.bfh_head REPLACE
DATA            132 Lgr_Test5.bfh_flux REPLACE
DIS              12 Lgr_Test5.dis OLD
BAS6             13 Lgr_Test5.bas OLD
OC               39 Lgr_Test5.oc OLD
DATA             37 Lgr_Test5.fhd REPLACE
DATA             38 Lgr_Test5.fdn REPLACE
PCG              18 Lgr_Test5.pcg OLD
LPF              14 Lgr_Test5.lpf OLD
CHD              17 Lgr_Test5.chd OLD
DRT              23 Lgr_Test5.drt OLD
RCH              24 Lgr_Test5.rch OLD
ETS              26 Lgr_Test5.ets OLD
MULT             16 Lgr_Test5.mlt OLD
PVAL             52 Lgr_Test5.pval OLD
