# Name File for MODFLOW created on 2/1/2017 by ModelMuse Version 3.8.1.27
LIST             11 ..\..\output\output.Lgr_Test3\Lgr_Test3.lst REPLACE
DATA(BINARY)      9 ..\..\output\output.Lgr_Test3\Lgr_Test3.cbc REPLACE
DATA            131 ..\..\output\output.Lgr_Test3\Lgr_Test3.bfh_head REPLACE
DATA            132 ..\..\output\output.Lgr_Test3\Lgr_Test3.bfh_flux REPLACE
DIS              12 ..\..\model\model.Lgr_Test3\Lgr_Test3.dis OLD
BAS6             13 ..\..\model\model.Lgr_Test3\Lgr_Test3.bas OLD
OC               39 ..\..\model\model.Lgr_Test3\Lgr_Test3.oc OLD
DATA             37 ..\..\output\output.Lgr_Test3\Lgr_Test3.fhd REPLACE
DATA             38 ..\..\output\output.Lgr_Test3\Lgr_Test3.fdn REPLACE
PCG              18 ..\..\model\model.Lgr_Test3\Lgr_Test3.pcg OLD
LPF              14 ..\..\model\model.Lgr_Test3\Lgr_Test3.lpf OLD
CHD              17 ..\..\model\model.Lgr_Test3\Lgr_Test3.chd OLD
WEL              20 ..\..\model\model.Lgr_Test3\Lgr_Test3.wel OLD
RCH              24 ..\..\model\model.Lgr_Test3\Lgr_Test3.rch OLD
MNW2             59 ..\..\model\model.Lgr_Test3\Lgr_Test3.mnw2 OLD
MNWI             60 ..\..\model\model.Lgr_Test3\Lgr_Test3.mnwi OLD
DATA             62 ..\..\output\output.Lgr_Test3\Lgr_Test3.QSUM_out REPLACE
DATA             63 ..\..\output\output.Lgr_Test3\Lgr_Test3.BYND_out REPLACE
DATA          20205 ..\..\output\output.Lgr_Test3\Lgr_Test3_Well-A.mnwi_out REPLACE
