# Name File for MODFLOW created on 12/14/2015 by ModelMuse
LIST           1011 Lgr_Test5_Child_1.lst REPLACE
DATA(BINARY)   1009 Lgr_Test5_Child_1.cbc REPLACE
DIS            1012 Lgr_Test5_Child_1.dis OLD
BAS6           1013 Lgr_Test5_Child_1.bas OLD
OC             1039 Lgr_Test5_Child_1.oc OLD
DATA           1037 Lgr_Test5_Child_1.fhd REPLACE
DATA           1038 Lgr_Test5_Child_1.fdn REPLACE
PCG            1018 Lgr_Test5_Child_1.pcg OLD
LPF            1014 Lgr_Test5_Child_1.lpf OLD
CHD            1017 Lgr_Test5_Child_1.chd OLD
DRT            1023 Lgr_Test5_Child_1.drt OLD
RCH            1024 Lgr_Test5_Child_1.rch OLD
ETS            1026 Lgr_Test5_Child_1.ets OLD
ZONE           1015 Lgr_Test5_Child_1.zon OLD
MULT           1016 Lgr_Test5_Child_1.mlt OLD
PVAL           1052 Lgr_Test5_Child_1.pval OLD
