# Name File for MODFLOW created on 6/20/2019 by ModelMuse Version 4.0.0.0
LIST             11 ..\..\output\output.Lgr_Test7\Lgr_Test7.lst REPLACE
DATA(BINARY)      9 ..\..\output\output.Lgr_Test7\Lgr_Test7.cbc REPLACE
DATA            131 ..\..\output\output.Lgr_Test7\Lgr_Test7.bfh_head REPLACE
DATA            132 ..\..\output\output.Lgr_Test7\Lgr_Test7.bfh_flux REPLACE
DIS              12 ..\..\model\model.Lgr_Test7\Lgr_Test7.dis OLD
BAS6             13 ..\..\model\model.Lgr_Test7\Lgr_Test7.bas OLD
OC               39 ..\..\model\model.Lgr_Test7\Lgr_Test7.oc OLD
DATA             37 ..\..\output\output.Lgr_Test7\Lgr_Test7.fhd REPLACE
DATA             38 ..\..\output\output.Lgr_Test7\Lgr_Test7.fdn REPLACE
SIP              35 ..\..\model\model.Lgr_Test7\Lgr_Test7.sip OLD
BCF6             64 ..\..\model\model.Lgr_Test7\Lgr_Test7.bcf OLD
CHD              17 ..\..\model\model.Lgr_Test7\Lgr_Test7.chd OLD
RCH              24 ..\..\model\model.Lgr_Test7\Lgr_Test7.rch OLD
EVT              25 ..\..\model\model.Lgr_Test7\Lgr_Test7.evt OLD
LAK              28 ..\..\model\model.Lgr_Test7\Lgr_Test7.lak OLD
DATA          20205 ..\..\output\output.Lgr_Test7\Lgr_Test7.lakg1 REPLACE
GAGE             40 ..\..\model\model.Lgr_Test7\Lgr_Test7.gag OLD
