# Name File for MODFLOW created on 12/14/2015 by ModelMuse
LIST             11 Lgr_Test3.lst REPLACE
DATA(BINARY)      9 Lgr_Test3.cbc REPLACE
DATA            131 Lgr_Test3.bfh_head REPLACE
DATA            132 Lgr_Test3.bfh_flux REPLACE
DIS              12 Lgr_Test3.dis OLD
BAS6             13 Lgr_Test3.bas OLD
OC               39 Lgr_Test3.oc OLD
DATA             37 Lgr_Test3.fhd REPLACE
DATA             38 Lgr_Test3.fdn REPLACE
PCG              18 Lgr_Test3.pcg OLD
LPF              14 Lgr_Test3.lpf OLD
CHD              17 Lgr_Test3.chd OLD
WEL              20 Lgr_Test3.wel OLD
RCH              24 Lgr_Test3.rch OLD
MNW2             59 Lgr_Test3.mnw2 OLD
MNWI             60 Lgr_Test3.mnwi OLD
DATA             62 Lgr_Test3.QSUM_out REPLACE
DATA             63 Lgr_Test3.BYND_out REPLACE
DATA          20205 Lgr_Test3_Well-A.mnwi_out REPLACE
