# Name File for MODFLOW created on 2/5/2018 by ModelMuse Version 3.9.0.29
LIST           2011 ..\..\output\output.Lgr_Test1_Child_2\Lgr_Test1_Child_2.lst REPLACE
DATA(BINARY)   2009 ..\..\output\output.Lgr_Test1_Child_2\Lgr_Test1_Child_2.cbc REPLACE
DIS            2012 ..\..\model\model.Lgr_Test1_Child_2\Lgr_Test1_Child_2.dis OLD
BAS6           2013 ..\..\model\model.Lgr_Test1_Child_2\Lgr_Test1_Child_2.bas OLD
OC             2039 ..\..\model\model.Lgr_Test1_Child_2\Lgr_Test1_Child_2.oc OLD
DATA           2037 ..\..\output\output.Lgr_Test1_Child_2\Lgr_Test1_Child_2.fhd REPLACE
DATA           2038 ..\..\output\output.Lgr_Test1_Child_2\Lgr_Test1_Child_2.fdn REPLACE
SIP            2035 ..\..\model\model.Lgr_Test1_Child_2\Lgr_Test1_Child_2.sip OLD
LPF            2014 ..\..\model\model.Lgr_Test1_Child_2\Lgr_Test1_Child_2.lpf OLD
CHD            2017 ..\..\model\model.Lgr_Test1_Child_2\Lgr_Test1_Child_2.chd OLD
WEL            2020 ..\..\model\model.Lgr_Test1_Child_2\Lgr_Test1_Child_2.wel OLD
RCH            2024 ..\..\model\model.Lgr_Test1_Child_2\Lgr_Test1_Child_2.rch OLD
ZONE           2015 ..\..\model\model.Lgr_Test1_Child_2\Lgr_Test1_Child_2.zon OLD
MULT           2016 ..\..\model\model.Lgr_Test1_Child_2\Lgr_Test1_Child_2.mlt OLD
PVAL           2052 ..\..\model\model.Lgr_Test1_Child_2\Lgr_Test1_Child_2.pval OLD
