# Name File for MODFLOW created on 2/1/2017 by ModelMuse Version 3.8.1.27
LIST             11 ..\..\output\output.Lgr_Test9\Lgr_Test9.lst REPLACE
DATA(BINARY)      9 ..\..\output\output.Lgr_Test9\Lgr_Test9.cbc REPLACE
DATA            131 ..\..\output\output.Lgr_Test9\Lgr_Test9.bfh_head REPLACE
DATA            132 ..\..\output\output.Lgr_Test9\Lgr_Test9.bfh_flux REPLACE
DIS              12 ..\..\model\model.Lgr_Test9\Lgr_Test9.dis OLD
BAS6             13 ..\..\model\model.Lgr_Test9\Lgr_Test9.bas OLD
OC               39 ..\..\model\model.Lgr_Test9\Lgr_Test9.oc OLD
DATA             37 ..\..\output\output.Lgr_Test9\Lgr_Test9.fhd REPLACE
DATA             38 ..\..\output\output.Lgr_Test9\Lgr_Test9.fdn REPLACE
SIP              35 ..\..\model\model.Lgr_Test9\Lgr_Test9.sip OLD
LPF              14 ..\..\model\model.Lgr_Test9\Lgr_Test9.lpf OLD
GHB              19 ..\..\model\model.Lgr_Test9\Lgr_Test9.ghb OLD
WEL              20 ..\..\model\model.Lgr_Test9\Lgr_Test9.wel OLD
SFR              29 ..\..\model\model.Lgr_Test9\Lgr_Test9.sfr OLD
UZF              31 ..\..\model\model.Lgr_Test9\Lgr_Test9.uzf OLD
DATA          20206 ..\..\output\output.Lgr_Test9\Lgr_Test91.uzfg REPLACE
DATA          20207 ..\..\output\output.Lgr_Test9\Lgr_Test92.uzfg REPLACE
DATA          20208 ..\..\output\output.Lgr_Test9\Lgr_Test93.uzfg REPLACE
DATA          20209 ..\..\output\output.Lgr_Test9\Lgr_Test94.uzfg REPLACE
DATA          20214 ..\..\output\output.Lgr_Test9\Lgr_Test9.sfrg1 REPLACE
DATA          20215 ..\..\output\output.Lgr_Test9\Lgr_Test9.sfrg2 REPLACE
DATA          20216 ..\..\output\output.Lgr_Test9\Lgr_Test9.sfrg3 REPLACE
DATA          20217 ..\..\output\output.Lgr_Test9\Lgr_Test9.sfrg4 REPLACE
DATA          20218 ..\..\output\output.Lgr_Test9\Lgr_Test9.sfrg5 REPLACE
DATA          20219 ..\..\output\output.Lgr_Test9\Lgr_Test9.sfrg6 REPLACE
DATA          20220 ..\..\output\output.Lgr_Test9\Lgr_Test9.sfrg7 REPLACE
DATA          20221 ..\..\output\output.Lgr_Test9\Lgr_Test9.sfrg8 REPLACE
GAGE             40 ..\..\model\model.Lgr_Test9\Lgr_Test9.gag OLD
