# Name File for MODFLOW created on 12/14/2015 by ModelMuse
LIST             11 Lgr_Test8.lst REPLACE
DATA(BINARY)      9 Lgr_Test8.cbc REPLACE
DATA            131 Lgr_Test8.bfh_head REPLACE
DATA            132 Lgr_Test8.bfh_flux REPLACE
DIS              12 Lgr_Test8.dis OLD
BAS6             13 Lgr_Test8.bas OLD
OC               39 Lgr_Test8.oc OLD
DATA             37 Lgr_Test8.fhd REPLACE
DATA             38 Lgr_Test8.fdn REPLACE
SIP              35 Lgr_Test8.sip OLD
LPF              14 Lgr_Test8.lpf OLD
GHB              19 Lgr_Test8.ghb OLD
WEL              20 Lgr_Test8.wel OLD
SFR              29 Lgr_Test8.sfr OLD
UZF              31 Lgr_Test8.uzf OLD
DATA          20206 Lgr_Test81.uzfg REPLACE
DATA          20207 Lgr_Test82.uzfg REPLACE
DATA          20208 Lgr_Test83.uzfg REPLACE
DATA          20209 Lgr_Test84.uzfg REPLACE
DATA          20214 Lgr_Test8.sfrg1 REPLACE
DATA          20215 Lgr_Test8.sfrg2 REPLACE
DATA          20216 Lgr_Test8.sfrg3 REPLACE
DATA          20217 Lgr_Test8.sfrg4 REPLACE
DATA          20218 Lgr_Test8.sfrg5 REPLACE
DATA          20219 Lgr_Test8.sfrg6 REPLACE
DATA          20220 Lgr_Test8.sfrg7 REPLACE
DATA          20221 Lgr_Test8.sfrg8 REPLACE
GAGE             40 Lgr_Test8.gag OLD
