# Name File for MODFLOW created on 2/5/2018 by ModelMuse Version 3.9.0.29
LIST           1011 ..\..\output\output.Lgr_Test9_Child_1\Lgr_Test9_Child_1.lst REPLACE
DATA(BINARY)   1009 ..\..\output\output.Lgr_Test9_Child_1\Lgr_Test9_Child_1.cbc REPLACE
SFR            1029 ..\..\model\model.Lgr_Test9_Child_1\Lgr_Test9_Child_1.sfr OLD
UZF            1031 ..\..\model\model.Lgr_Test9_Child_1\Lgr_Test9_Child_1.uzf OLD
DATA          20211 ..\..\output\output.Lgr_Test9_Child_1\Lgr_Test9_Child_11.uzfg REPLACE
DATA          20212 ..\..\output\output.Lgr_Test9_Child_1\Lgr_Test9_Child_12.uzfg REPLACE
DATA          20213 ..\..\output\output.Lgr_Test9_Child_1\Lgr_Test9_Child_13.uzfg REPLACE
DIS            1012 ..\..\model\model.Lgr_Test9_Child_1\Lgr_Test9_Child_1.dis OLD
BAS6           1013 ..\..\model\model.Lgr_Test9_Child_1\Lgr_Test9_Child_1.bas OLD
OC             1039 ..\..\model\model.Lgr_Test9_Child_1\Lgr_Test9_Child_1.oc OLD
DATA           1037 ..\..\output\output.Lgr_Test9_Child_1\Lgr_Test9_Child_1.fhd REPLACE
DATA           1038 ..\..\output\output.Lgr_Test9_Child_1\Lgr_Test9_Child_1.fdn REPLACE
SIP            1035 ..\..\model\model.Lgr_Test9_Child_1\Lgr_Test9_Child_1.sip OLD
LPF            1014 ..\..\model\model.Lgr_Test9_Child_1\Lgr_Test9_Child_1.lpf OLD
WEL            1020 ..\..\model\model.Lgr_Test9_Child_1\Lgr_Test9_Child_1.wel OLD
DATA          20222 ..\..\output\output.Lgr_Test9_Child_1\Lgr_Test9_Child_1.sfrg1 REPLACE
DATA          20223 ..\..\output\output.Lgr_Test9_Child_1\Lgr_Test9_Child_1.sfrg2 REPLACE
DATA          20224 ..\..\output\output.Lgr_Test9_Child_1\Lgr_Test9_Child_1.sfrg3 REPLACE
DATA          20225 ..\..\output\output.Lgr_Test9_Child_1\Lgr_Test9_Child_1.sfrg4 REPLACE
DATA          20226 ..\..\output\output.Lgr_Test9_Child_1\Lgr_Test9_Child_1.sfrg5 REPLACE
DATA          20227 ..\..\output\output.Lgr_Test9_Child_1\Lgr_Test9_Child_1.sfrg6 REPLACE
DATA          20228 ..\..\output\output.Lgr_Test9_Child_1\Lgr_Test9_Child_1.sfrg7 REPLACE
GAGE           1040 ..\..\model\model.Lgr_Test9_Child_1\Lgr_Test9_Child_1.gag OLD
