# Name File for MODFLOW created on 2/5/2018 by ModelMuse Version 3.9.0.29
LIST           1011 ..\..\output\output.Lgr_Test2_Child_1\Lgr_Test2_Child_1.lst REPLACE
DATA(BINARY)   1009 ..\..\output\output.Lgr_Test2_Child_1\Lgr_Test2_Child_1.cbc REPLACE
SFR            1029 ..\..\model\model.Lgr_Test2_Child_1\Lgr_Test2_Child_1.sfr OLD
DIS            1012 ..\..\model\model.Lgr_Test2_Child_1\Lgr_Test2_Child_1.dis OLD
BAS6           1013 ..\..\model\model.Lgr_Test2_Child_1\Lgr_Test2_Child_1.bas OLD
OC             1039 ..\..\model\model.Lgr_Test2_Child_1\Lgr_Test2_Child_1.oc OLD
DATA           1037 ..\..\output\output.Lgr_Test2_Child_1\Lgr_Test2_Child_1.fhd REPLACE
DATA           1038 ..\..\output\output.Lgr_Test2_Child_1\Lgr_Test2_Child_1.fdn REPLACE
SIP            1035 ..\..\model\model.Lgr_Test2_Child_1\Lgr_Test2_Child_1.sip OLD
LPF            1014 ..\..\model\model.Lgr_Test2_Child_1\Lgr_Test2_Child_1.lpf OLD
WEL            1020 ..\..\model\model.Lgr_Test2_Child_1\Lgr_Test2_Child_1.wel OLD
RCH            1024 ..\..\model\model.Lgr_Test2_Child_1\Lgr_Test2_Child_1.rch OLD
EVT            1025 ..\..\model\model.Lgr_Test2_Child_1\Lgr_Test2_Child_1.evt OLD
DATA          20214 ..\..\output\output.Lgr_Test2_Child_1\Lgr_Test2_Child_1.sfrg1 REPLACE
DATA          20215 ..\..\output\output.Lgr_Test2_Child_1\Lgr_Test2_Child_1.sfrg2 REPLACE
DATA          20216 ..\..\output\output.Lgr_Test2_Child_1\Lgr_Test2_Child_1.sfrg3 REPLACE
GAGE           1040 ..\..\model\model.Lgr_Test2_Child_1\Lgr_Test2_Child_1.gag OLD
