# Name File for MODFLOW created on 2/1/2017 by ModelMuse Version 3.8.1.27
LIST             11 ..\..\output\output.Lgr_Test2\Lgr_Test2.lst REPLACE
DATA(BINARY)      9 ..\..\output\output.Lgr_Test2\Lgr_Test2.cbc REPLACE
DATA            131 ..\..\output\output.Lgr_Test2\Lgr_Test2.bfh_head REPLACE
DATA            132 ..\..\output\output.Lgr_Test2\Lgr_Test2.bfh_flux REPLACE
DIS              12 ..\..\model\model.Lgr_Test2\Lgr_Test2.dis OLD
BAS6             13 ..\..\model\model.Lgr_Test2\Lgr_Test2.bas OLD
OC               39 ..\..\model\model.Lgr_Test2\Lgr_Test2.oc OLD
DATA             37 ..\..\output\output.Lgr_Test2\Lgr_Test2.fhd REPLACE
DATA             38 ..\..\output\output.Lgr_Test2\Lgr_Test2.fdn REPLACE
SIP              35 ..\..\model\model.Lgr_Test2\Lgr_Test2.sip OLD
LPF              14 ..\..\model\model.Lgr_Test2\Lgr_Test2.lpf OLD
GHB              19 ..\..\model\model.Lgr_Test2\Lgr_Test2.ghb OLD
WEL              20 ..\..\model\model.Lgr_Test2\Lgr_Test2.wel OLD
RCH              24 ..\..\model\model.Lgr_Test2\Lgr_Test2.rch OLD
EVT              25 ..\..\model\model.Lgr_Test2\Lgr_Test2.evt OLD
SFR              29 ..\..\model\model.Lgr_Test2\Lgr_Test2.sfr OLD
DATA          20205 ..\..\output\output.Lgr_Test2\Lgr_Test2.sfrg1 REPLACE
DATA          20206 ..\..\output\output.Lgr_Test2\Lgr_Test2.sfrg2 REPLACE
DATA          20207 ..\..\output\output.Lgr_Test2\Lgr_Test2.sfrg3 REPLACE
DATA          20208 ..\..\output\output.Lgr_Test2\Lgr_Test2.sfrg4 REPLACE
DATA          20209 ..\..\output\output.Lgr_Test2\Lgr_Test2.sfrg5 REPLACE
DATA          20210 ..\..\output\output.Lgr_Test2\Lgr_Test2.sfrg6 REPLACE
DATA          20211 ..\..\output\output.Lgr_Test2\Lgr_Test2.sfrg7 REPLACE
DATA          20212 ..\..\output\output.Lgr_Test2\Lgr_Test2.sfrg8 REPLACE
DATA          20213 ..\..\output\output.Lgr_Test2\Lgr_Test2.sfrg9 REPLACE
GAGE             40 ..\..\model\model.Lgr_Test2\Lgr_Test2.gag OLD
