# LGR Control File for MODFLOW-LGR created on 12/12/2015 by ModelMuse
LGR
     3 # NGRIDS
Lgr_Test1.nam # NAME FILE
PARENTONLY
   131   132 # Data set 5 IUPBHSV, IUPBFSV
Lgr_Test1_Child_1.nam # Data set 6 NAME FILE
CHILDONLY # Data set 7 GRIDSTATUS
     0    -2  1131  1132 # Data set 8 ISHFLG IBFLG IUCBHSV IUCBFSV
    20     1 # Data set 9 MXLGRITER IOUTLGR
  5.000000000000E-001   5.000000000000E-001  # Data set 10 RELAXH RELAXF
  5.000000000000E-003   5.000000000000E-002  # Data set 11 HCLOSELGR FCLOSELGR
     1     4     9 # Data set 12 NPLBEG NPRBEG NPCBEG
     3     8    13 # Data set 13 NPLEND NPREND NPCEND
     3 # Data set 14 NCPP
     1     3     3 # Data set 15 NCPPL
Lgr_Test1_Child_2.nam # Data set 6 NAME FILE
CHILDONLY # Data set 7 GRIDSTATUS
     1    -3     0     0 # Data set 8 ISHFLG IBFLG IUCBHSV IUCBFSV
     1    -1 # Data set 9 MXLGRITER IOUTLGR
  4.000000000000E-001   6.000000000000E-001  # Data set 10 RELAXH RELAXF
  4.000000000000E-003   3.000000000000E-002  # Data set 11 HCLOSELGR FCLOSELGR
     1    11     7 # Data set 12 NPLBEG NPRBEG NPCBEG
     2    14    11 # Data set 13 NPLEND NPREND NPCEND
     5 # Data set 14 NCPP
     1     5 # Data set 15 NCPPL
