# Name File for MODFLOW created on 12/14/2015 by ModelMuse
LIST             11 Lgr_Test2.lst REPLACE
DATA(BINARY)      9 Lgr_Test2.cbc REPLACE
DATA            131 Lgr_Test2.bfh_head REPLACE
DATA            132 Lgr_Test2.bfh_flux REPLACE
DIS              12 Lgr_Test2.dis OLD
BAS6             13 Lgr_Test2.bas OLD
OC               39 Lgr_Test2.oc OLD
DATA             37 Lgr_Test2.fhd REPLACE
DATA             38 Lgr_Test2.fdn REPLACE
SIP              35 Lgr_Test2.sip OLD
LPF              14 Lgr_Test2.lpf OLD
GHB              19 Lgr_Test2.ghb OLD
WEL              20 Lgr_Test2.wel OLD
RCH              24 Lgr_Test2.rch OLD
EVT              25 Lgr_Test2.evt OLD
SFR              29 Lgr_Test2.sfr OLD
DATA          20205 Lgr_Test2.sfrg1 REPLACE
DATA          20206 Lgr_Test2.sfrg2 REPLACE
DATA          20207 Lgr_Test2.sfrg3 REPLACE
DATA          20208 Lgr_Test2.sfrg4 REPLACE
DATA          20209 Lgr_Test2.sfrg5 REPLACE
DATA          20210 Lgr_Test2.sfrg6 REPLACE
DATA          20211 Lgr_Test2.sfrg7 REPLACE
DATA          20212 Lgr_Test2.sfrg8 REPLACE
DATA          20213 Lgr_Test2.sfrg9 REPLACE
GAGE             40 Lgr_Test2.gag OLD
