# Name File for MODFLOW created on 12/14/2015 by ModelMuse
LIST           1011 Lgr_Test6_Child_1.lst REPLACE
DATA(BINARY)   1009 Lgr_Test6_Child_1.cbc REPLACE
DIS            1012 Lgr_Test6_Child_1.dis OLD
BAS6           1013 Lgr_Test6_Child_1.bas OLD
OC             1039 Lgr_Test6_Child_1.oc OLD
DATA           1037 Lgr_Test6_Child_1.fhd REPLACE
DATA           1038 Lgr_Test6_Child_1.fdn REPLACE
PCG            1018 Lgr_Test6_Child_1.pcg OLD
HUF2           1053 Lgr_Test6_Child_1.huf OLD
DATA           1054 Lgr_Test6_Child_1.huf_fhd REPLACE
CHD            1017 Lgr_Test6_Child_1.chd OLD
GHB            1019 Lgr_Test6_Child_1.ghb OLD
WEL            1020 Lgr_Test6_Child_1.wel OLD
DRN            1022 Lgr_Test6_Child_1.drn OLD
RCH            1024 Lgr_Test6_Child_1.rch OLD
EVT            1025 Lgr_Test6_Child_1.evt OLD
ZONE           1015 Lgr_Test6_Child_1.zon OLD
MULT           1016 Lgr_Test6_Child_1.mlt OLD
PVAL           1052 Lgr_Test6_Child_1.pval OLD
