# Name File for MODFLOW created on 2/1/2017 by ModelMuse Version 3.8.1.27
LIST             11 ..\..\output\output.Lgr_Test6\Lgr_Test6.lst REPLACE
DATA(BINARY)      9 ..\..\output\output.Lgr_Test6\Lgr_Test6.cbc REPLACE
DATA            131 ..\..\output\output.Lgr_Test6\Lgr_Test6.bfh_head REPLACE
DATA            132 ..\..\output\output.Lgr_Test6\Lgr_Test6.bfh_flux REPLACE
DIS              12 ..\..\model\model.Lgr_Test6\Lgr_Test6.dis OLD
BAS6             13 ..\..\model\model.Lgr_Test6\Lgr_Test6.bas OLD
OC               39 ..\..\model\model.Lgr_Test6\Lgr_Test6.oc OLD
DATA             37 ..\..\output\output.Lgr_Test6\Lgr_Test6.fhd REPLACE
DATA             38 ..\..\output\output.Lgr_Test6\Lgr_Test6.fdn REPLACE
PCG              18 ..\..\model\model.Lgr_Test6\Lgr_Test6.pcg OLD
HUF2             53 ..\..\model\model.Lgr_Test6\Lgr_Test6.huf OLD
DATA             54 ..\..\output\output.Lgr_Test6\Lgr_Test6.huf_fhd REPLACE
CHD              17 ..\..\model\model.Lgr_Test6\Lgr_Test6.chd OLD
GHB              19 ..\..\model\model.Lgr_Test6\Lgr_Test6.ghb OLD
WEL              20 ..\..\model\model.Lgr_Test6\Lgr_Test6.wel OLD
DRN              22 ..\..\model\model.Lgr_Test6\Lgr_Test6.drn OLD
RCH              24 ..\..\model\model.Lgr_Test6\Lgr_Test6.rch OLD
EVT              25 ..\..\model\model.Lgr_Test6\Lgr_Test6.evt OLD
ZONE             15 ..\..\model\model.Lgr_Test6\Lgr_Test6.zon OLD
MULT             16 ..\..\model\model.Lgr_Test6\Lgr_Test6.mlt OLD
PVAL             52 ..\..\model\model.Lgr_Test6\Lgr_Test6.pval OLD
