# Name File for MODFLOW created on 2/1/2017 by ModelMuse Version 3.8.1.27
LIST           1011 ..\..\output\output.Lgr_Test6_Child_1\Lgr_Test6_Child_1.lst REPLACE
DATA(BINARY)   1009 ..\..\output\output.Lgr_Test6_Child_1\Lgr_Test6_Child_1.cbc REPLACE
DIS            1012 ..\..\model\model.Lgr_Test6_Child_1\Lgr_Test6_Child_1.dis OLD
BAS6           1013 ..\..\model\model.Lgr_Test6_Child_1\Lgr_Test6_Child_1.bas OLD
OC             1039 ..\..\model\model.Lgr_Test6_Child_1\Lgr_Test6_Child_1.oc OLD
DATA           1037 ..\..\output\output.Lgr_Test6_Child_1\Lgr_Test6_Child_1.fhd REPLACE
DATA           1038 ..\..\output\output.Lgr_Test6_Child_1\Lgr_Test6_Child_1.fdn REPLACE
PCG            1018 ..\..\model\model.Lgr_Test6_Child_1\Lgr_Test6_Child_1.pcg OLD
HUF2           1053 ..\..\model\model.Lgr_Test6_Child_1\Lgr_Test6_Child_1.huf OLD
DATA           1054 ..\..\output\output.Lgr_Test6_Child_1\Lgr_Test6_Child_1.huf_fhd REPLACE
CHD            1017 ..\..\model\model.Lgr_Test6_Child_1\Lgr_Test6_Child_1.chd OLD
GHB            1019 ..\..\model\model.Lgr_Test6_Child_1\Lgr_Test6_Child_1.ghb OLD
WEL            1020 ..\..\model\model.Lgr_Test6_Child_1\Lgr_Test6_Child_1.wel OLD
DRN            1022 ..\..\model\model.Lgr_Test6_Child_1\Lgr_Test6_Child_1.drn OLD
RCH            1024 ..\..\model\model.Lgr_Test6_Child_1\Lgr_Test6_Child_1.rch OLD
EVT            1025 ..\..\model\model.Lgr_Test6_Child_1\Lgr_Test6_Child_1.evt OLD
ZONE           1015 ..\..\model\model.Lgr_Test6_Child_1\Lgr_Test6_Child_1.zon OLD
MULT           1016 ..\..\model\model.Lgr_Test6_Child_1\Lgr_Test6_Child_1.mlt OLD
PVAL           1052 ..\..\model\model.Lgr_Test6_Child_1\Lgr_Test6_Child_1.pval OLD
