# Name File for MODFLOW created on 2/1/2017 by ModelMuse Version 3.8.1.27
LIST           1011 ..\..\output\output.Lgr_Test7_Child_1\Lgr_Test7_Child_1.lst REPLACE
DATA(BINARY)   1009 ..\..\output\output.Lgr_Test7_Child_1\Lgr_Test7_Child_1.cbc REPLACE
LAK            1028 ..\..\model\model.Lgr_Test7_Child_1\Lgr_Test7_Child_1.lak OLD
DATA          20206 ..\..\output\output.Lgr_Test7_Child_1\Lgr_Test7_Child_1.lakg1 REPLACE
DIS            1012 ..\..\model\model.Lgr_Test7_Child_1\Lgr_Test7_Child_1.dis OLD
BAS6           1013 ..\..\model\model.Lgr_Test7_Child_1\Lgr_Test7_Child_1.bas OLD
OC             1039 ..\..\model\model.Lgr_Test7_Child_1\Lgr_Test7_Child_1.oc OLD
DATA           1037 ..\..\output\output.Lgr_Test7_Child_1\Lgr_Test7_Child_1.fhd REPLACE
DATA           1038 ..\..\output\output.Lgr_Test7_Child_1\Lgr_Test7_Child_1.fdn REPLACE
SIP            1035 ..\..\model\model.Lgr_Test7_Child_1\Lgr_Test7_Child_1.sip OLD
BCF6           1064 ..\..\model\model.Lgr_Test7_Child_1\Lgr_Test7_Child_1.bcf OLD
CHD            1017 ..\..\model\model.Lgr_Test7_Child_1\Lgr_Test7_Child_1.chd OLD
RCH            1024 ..\..\model\model.Lgr_Test7_Child_1\Lgr_Test7_Child_1.rch OLD
EVT            1025 ..\..\model\model.Lgr_Test7_Child_1\Lgr_Test7_Child_1.evt OLD
GAGE           1040 ..\..\model\model.Lgr_Test7_Child_1\Lgr_Test7_Child_1.gag OLD
