# Name File for MODFLOW created on 12/14/2015 by ModelMuse
LIST             11 Lgr_Test7.lst REPLACE
DATA(BINARY)      9 Lgr_Test7.cbc REPLACE
DATA            131 Lgr_Test7.bfh_head REPLACE
DATA            132 Lgr_Test7.bfh_flux REPLACE
DIS              12 Lgr_Test7.dis OLD
BAS6             13 Lgr_Test7.bas OLD
OC               39 Lgr_Test7.oc OLD
DATA             37 Lgr_Test7.fhd REPLACE
DATA             38 Lgr_Test7.fdn REPLACE
SIP              35 Lgr_Test7.sip OLD
BCF6             64 Lgr_Test7.bcf OLD
CHD              17 Lgr_Test7.chd OLD
RCH              24 Lgr_Test7.rch OLD
EVT              25 Lgr_Test7.evt OLD
LAK              28 Lgr_Test7.lak OLD
DATA          20205 Lgr_Test7.lakg1 REPLACE
GAGE             40 Lgr_Test7.gag OLD
