# Name File for MODFLOW created on 5/25/2021 by ModelMuse Version 4.3.0.47
LIST             11 ..\..\output\output.Lgr_Test10\Lgr_Test10.lst REPLACE
DATA(BINARY)      9 ..\..\output\output.Lgr_Test10\Lgr_Test10.cbc REPLACE
DATA            131 ..\..\output\output.Lgr_Test10\Lgr_Test10.bfh_head REPLACE
DATA            132 ..\..\output\output.Lgr_Test10\Lgr_Test10.bfh_flux REPLACE
DIS              12 ..\..\model\model.Lgr_Test10\Lgr_Test10.dis OLD
BAS6             13 ..\..\model\model.Lgr_Test10\Lgr_Test10.bas OLD
OC               39 ..\..\model\model.Lgr_Test10\Lgr_Test10.oc OLD
DATA             37 ..\..\output\output.Lgr_Test10\Lgr_Test10.fhd REPLACE
DATA             38 ..\..\output\output.Lgr_Test10\Lgr_Test10.fdn REPLACE
SIP              35 ..\..\model\model.Lgr_Test10\Lgr_Test10.sip OLD
BCF6             64 ..\..\model\model.Lgr_Test10\Lgr_Test10.bcf OLD
GHB              19 ..\..\model\model.Lgr_Test10\Lgr_Test10.ghb OLD
RES              27 ..\..\model\model.Lgr_Test10\Lgr_Test10.resv OLD
