# Name File for MODFLOW created on 2/1/2017 by ModelMuse Version 3.8.1.27
LIST             11 ..\..\output\output.Lgr_Test5\Lgr_Test5.lst REPLACE
DATA(BINARY)      9 ..\..\output\output.Lgr_Test5\Lgr_Test5.cbc REPLACE
DATA            131 ..\..\output\output.Lgr_Test5\Lgr_Test5.bfh_head REPLACE
DATA            132 ..\..\output\output.Lgr_Test5\Lgr_Test5.bfh_flux REPLACE
DIS              12 ..\..\model\model.Lgr_Test5\Lgr_Test5.dis OLD
BAS6             13 ..\..\model\model.Lgr_Test5\Lgr_Test5.bas OLD
OC               39 ..\..\model\model.Lgr_Test5\Lgr_Test5.oc OLD
DATA             37 ..\..\output\output.Lgr_Test5\Lgr_Test5.fhd REPLACE
DATA             38 ..\..\output\output.Lgr_Test5\Lgr_Test5.fdn REPLACE
PCG              18 ..\..\model\model.Lgr_Test5\Lgr_Test5.pcg OLD
LPF              14 ..\..\model\model.Lgr_Test5\Lgr_Test5.lpf OLD
CHD              17 ..\..\model\model.Lgr_Test5\Lgr_Test5.chd OLD
DRT              23 ..\..\model\model.Lgr_Test5\Lgr_Test5.drt OLD
RCH              24 ..\..\model\model.Lgr_Test5\Lgr_Test5.rch OLD
ETS              26 ..\..\model\model.Lgr_Test5\Lgr_Test5.ets OLD
MULT             16 ..\..\model\model.Lgr_Test5\Lgr_Test5.mlt OLD
PVAL             52 ..\..\model\model.Lgr_Test5\Lgr_Test5.pval OLD
