# Name File for MODFLOW created on 12/14/2015 by ModelMuse
LIST             11 Lgr_Test10.lst REPLACE
DATA(BINARY)      9 Lgr_Test10.cbc REPLACE
DATA            131 Lgr_Test10.bfh_head REPLACE
DATA            132 Lgr_Test10.bfh_flux REPLACE
DIS              12 Lgr_Test10.dis OLD
BAS6             13 Lgr_Test10.bas OLD
OC               39 Lgr_Test10.oc OLD
DATA             37 Lgr_Test10.fhd REPLACE
DATA             38 Lgr_Test10.fdn REPLACE
SIP              35 Lgr_Test10.sip OLD
BCF6             64 Lgr_Test10.bcf OLD
GHB              19 Lgr_Test10.ghb OLD
RES              27 Lgr_Test10.res OLD
