# Name File for MODFLOW created on 12/14/2015 by ModelMuse
LIST             11 Lgr_Test11.lst REPLACE
DATA(BINARY)      9 Lgr_Test11.cbc REPLACE
DIS              12 Lgr_Test11.dis OLD
BAS6             13 Lgr_Test11.bas OLD
OC               39 Lgr_Test11.oc OLD
DATA             37 Lgr_Test11.fhd REPLACE
DATA             38 Lgr_Test11.fdn REPLACE
SIP              35 Lgr_Test11.sip OLD
BCF6             64 Lgr_Test11.bcf OLD
CHD              17 Lgr_Test11.chd OLD
WEL              20 Lgr_Test11.wel OLD
DRN              22 Lgr_Test11.drn OLD
RCH              24 Lgr_Test11.rch OLD
HFB6             43 Lgr_Test11.hfb OLD
