# Name File for MODFLOW created on 2/1/2017 by ModelMuse Version 3.8.1.27
LIST             11 ..\..\output\output.Lgr_Test11\Lgr_Test11.lst REPLACE
DATA(BINARY)      9 ..\..\output\output.Lgr_Test11\Lgr_Test11.cbc REPLACE
DIS              12 ..\..\model\model.Lgr_Test11\Lgr_Test11.dis OLD
BAS6             13 ..\..\model\model.Lgr_Test11\Lgr_Test11.bas OLD
OC               39 ..\..\model\model.Lgr_Test11\Lgr_Test11.oc OLD
DATA             37 ..\..\output\output.Lgr_Test11\Lgr_Test11.fhd REPLACE
DATA             38 ..\..\output\output.Lgr_Test11\Lgr_Test11.fdn REPLACE
SIP              35 ..\..\model\model.Lgr_Test11\Lgr_Test11.sip OLD
BCF6             64 ..\..\model\model.Lgr_Test11\Lgr_Test11.bcf OLD
CHD              17 ..\..\model\model.Lgr_Test11\Lgr_Test11.chd OLD
WEL              20 ..\..\model\model.Lgr_Test11\Lgr_Test11.wel OLD
DRN              22 ..\..\model\model.Lgr_Test11\Lgr_Test11.drn OLD
RCH              24 ..\..\model\model.Lgr_Test11\Lgr_Test11.rch OLD
HFB6             43 ..\..\model\model.Lgr_Test11\Lgr_Test11.hfb OLD
