# Name File for MODFLOW created on 2/1/2017 by ModelMuse Version 3.8.1.27
LIST           1011 ..\..\output\output.Lgr_Test3_Child_1\Lgr_Test3_Child_1.lst REPLACE
DATA(BINARY)   1009 ..\..\output\output.Lgr_Test3_Child_1\Lgr_Test3_Child_1.cbc REPLACE
DIS            1012 ..\..\model\model.Lgr_Test3_Child_1\Lgr_Test3_Child_1.dis OLD
BAS6           1013 ..\..\model\model.Lgr_Test3_Child_1\Lgr_Test3_Child_1.bas OLD
OC             1039 ..\..\model\model.Lgr_Test3_Child_1\Lgr_Test3_Child_1.oc OLD
DATA           1037 ..\..\output\output.Lgr_Test3_Child_1\Lgr_Test3_Child_1.fhd REPLACE
DATA           1038 ..\..\output\output.Lgr_Test3_Child_1\Lgr_Test3_Child_1.fdn REPLACE
PCG            1018 ..\..\model\model.Lgr_Test3_Child_1\Lgr_Test3_Child_1.pcg OLD
LPF            1014 ..\..\model\model.Lgr_Test3_Child_1\Lgr_Test3_Child_1.lpf OLD
CHD            1017 ..\..\model\model.Lgr_Test3_Child_1\Lgr_Test3_Child_1.chd OLD
WEL            1020 ..\..\model\model.Lgr_Test3_Child_1\Lgr_Test3_Child_1.wel OLD
RCH            1024 ..\..\model\model.Lgr_Test3_Child_1\Lgr_Test3_Child_1.rch OLD
MNW2           1059 ..\..\model\model.Lgr_Test3_Child_1\Lgr_Test3_Child_1.mnw2 OLD
MNWI           1060 ..\..\model\model.Lgr_Test3_Child_1\Lgr_Test3_Child_1.mnwi OLD
DATA           1062 ..\..\output\output.Lgr_Test3_Child_1\Lgr_Test3_Child_1.QSUM_out REPLACE
DATA           1063 ..\..\output\output.Lgr_Test3_Child_1\Lgr_Test3_Child_1.BYND_out REPLACE
DATA          20206 ..\..\output\output.Lgr_Test3_Child_1\Lgr_Test3_Child_1_Well-A.mnwi_out REPLACE
