# Name File for MODFLOW created on 2/5/2018 by ModelMuse Version 3.9.0.29
LIST           1011 Lgr_Test9_Child_1.lst REPLACE
DATA(BINARY)   1009 Lgr_Test9_Child_1.cbc REPLACE
SFR            1029 Lgr_Test9_Child_1.sfr OLD
UZF            1031 Lgr_Test9_Child_1.uzf OLD
DATA          20211 Lgr_Test9_Child_11.uzfg REPLACE
DATA          20212 Lgr_Test9_Child_12.uzfg REPLACE
DATA          20213 Lgr_Test9_Child_13.uzfg REPLACE
DIS            1012 Lgr_Test9_Child_1.dis OLD
BAS6           1013 Lgr_Test9_Child_1.bas OLD
OC             1039 Lgr_Test9_Child_1.oc OLD
DATA           1037 Lgr_Test9_Child_1.fhd REPLACE
DATA           1038 Lgr_Test9_Child_1.fdn REPLACE
SIP            1035 Lgr_Test9_Child_1.sip OLD
LPF            1014 Lgr_Test9_Child_1.lpf OLD
WEL            1020 Lgr_Test9_Child_1.wel OLD
DATA          20222 Lgr_Test9_Child_1.sfrg1 REPLACE
DATA          20223 Lgr_Test9_Child_1.sfrg2 REPLACE
DATA          20224 Lgr_Test9_Child_1.sfrg3 REPLACE
DATA          20225 Lgr_Test9_Child_1.sfrg4 REPLACE
DATA          20226 Lgr_Test9_Child_1.sfrg5 REPLACE
DATA          20227 Lgr_Test9_Child_1.sfrg6 REPLACE
DATA          20228 Lgr_Test9_Child_1.sfrg7 REPLACE
GAGE           1040 Lgr_Test9_Child_1.gag OLD
