# Name File for MODFLOW created on 2/5/2018 by ModelMuse Version 3.9.0.29
LIST           1011 Lgr_Test2_Child_1.lst REPLACE
DATA(BINARY)   1009 Lgr_Test2_Child_1.cbc REPLACE
SFR            1029 Lgr_Test2_Child_1.sfr OLD
DIS            1012 Lgr_Test2_Child_1.dis OLD
BAS6           1013 Lgr_Test2_Child_1.bas OLD
OC             1039 Lgr_Test2_Child_1.oc OLD
DATA           1037 Lgr_Test2_Child_1.fhd REPLACE
DATA           1038 Lgr_Test2_Child_1.fdn REPLACE
SIP            1035 Lgr_Test2_Child_1.sip OLD
LPF            1014 Lgr_Test2_Child_1.lpf OLD
WEL            1020 Lgr_Test2_Child_1.wel OLD
RCH            1024 Lgr_Test2_Child_1.rch OLD
EVT            1025 Lgr_Test2_Child_1.evt OLD
DATA          20214 Lgr_Test2_Child_1.sfrg1 REPLACE
DATA          20215 Lgr_Test2_Child_1.sfrg2 REPLACE
DATA          20216 Lgr_Test2_Child_1.sfrg3 REPLACE
GAGE           1040 Lgr_Test2_Child_1.gag OLD
