# Name File for MODFLOW created on 12/14/2015 by ModelMuse
LIST           1011 Lgr_Test3_Child_1.lst REPLACE
DATA(BINARY)   1009 Lgr_Test3_Child_1.cbc REPLACE
DIS            1012 Lgr_Test3_Child_1.dis OLD
BAS6           1013 Lgr_Test3_Child_1.bas OLD
OC             1039 Lgr_Test3_Child_1.oc OLD
DATA           1037 Lgr_Test3_Child_1.fhd REPLACE
DATA           1038 Lgr_Test3_Child_1.fdn REPLACE
PCG            1018 Lgr_Test3_Child_1.pcg OLD
LPF            1014 Lgr_Test3_Child_1.lpf OLD
CHD            1017 Lgr_Test3_Child_1.chd OLD
WEL            1020 Lgr_Test3_Child_1.wel OLD
RCH            1024 Lgr_Test3_Child_1.rch OLD
MNW2           1059 Lgr_Test3_Child_1.mnw2 OLD
MNWI           1060 Lgr_Test3_Child_1.mnwi OLD
DATA           1062 Lgr_Test3_Child_1.QSUM_out REPLACE
DATA           1063 Lgr_Test3_Child_1.BYND_out REPLACE
DATA          20206 Lgr_Test3_Child_1_Well-A.mnwi_out REPLACE
