# Name File for MODFLOW created on 12/14/2015 by ModelMuse
LIST           1011 LgrStreamLink_Child_1.lst REPLACE
DATA(BINARY)   1009 LgrStreamLink_Child_1.cbc REPLACE
SFR            1029 LgrStreamLink_Child_1.sfr OLD
DIS            1012 LgrStreamLink_Child_1.dis OLD
BAS6           1013 LgrStreamLink_Child_1.bas OLD
OC             1039 LgrStreamLink_Child_1.oc OLD
DATA           1037 LgrStreamLink_Child_1.fhd REPLACE
DATA           1038 LgrStreamLink_Child_1.fdn REPLACE
PCG            1018 LgrStreamLink_Child_1.pcg OLD
LPF            1014 LgrStreamLink_Child_1.lpf OLD
