# Name File for MODFLOW created on 12/14/2015 by ModelMuse
LIST             11 LgrStreamLinkTest3.lst REPLACE
DATA(BINARY)      9 LgrStreamLinkTest3.cbc REPLACE
DATA            131 LgrStreamLinkTest3.bfh_head REPLACE
DATA            132 LgrStreamLinkTest3.bfh_flux REPLACE
DIS              12 LgrStreamLinkTest3.dis OLD
BAS6             13 LgrStreamLinkTest3.bas OLD
OC               39 LgrStreamLinkTest3.oc OLD
DATA             37 LgrStreamLinkTest3.fhd REPLACE
DATA             38 LgrStreamLinkTest3.fdn REPLACE
PCG              18 LgrStreamLinkTest3.pcg OLD
LPF              14 LgrStreamLinkTest3.lpf OLD
SFR              29 LgrStreamLinkTest3.sfr OLD
PVAL             52 LgrStreamLinkTest3.pval OLD
