# Name File for MODFLOW created on 2/1/2017 by ModelMuse Version 3.8.1.27
LIST             11 ..\..\output\output.LgrStreamLinkPar\LgrStreamLinkPar.lst REPLACE
DATA(BINARY)      9 ..\..\output\output.LgrStreamLinkPar\LgrStreamLinkPar.cbc REPLACE
DATA            131 ..\..\output\output.LgrStreamLinkPar\LgrStreamLinkPar.bfh_head REPLACE
DATA            132 ..\..\output\output.LgrStreamLinkPar\LgrStreamLinkPar.bfh_flux REPLACE
DIS              12 ..\..\model\model.LgrStreamLinkPar\LgrStreamLinkPar.dis OLD
BAS6             13 ..\..\model\model.LgrStreamLinkPar\LgrStreamLinkPar.bas OLD
OC               39 ..\..\model\model.LgrStreamLinkPar\LgrStreamLinkPar.oc OLD
DATA             37 ..\..\output\output.LgrStreamLinkPar\LgrStreamLinkPar.fhd REPLACE
DATA             38 ..\..\output\output.LgrStreamLinkPar\LgrStreamLinkPar.fdn REPLACE
PCG              18 ..\..\model\model.LgrStreamLinkPar\LgrStreamLinkPar.pcg OLD
LPF              14 ..\..\model\model.LgrStreamLinkPar\LgrStreamLinkPar.lpf OLD
SFR              29 ..\..\model\model.LgrStreamLinkPar\LgrStreamLinkPar.sfr OLD
PVAL             52 ..\..\model\model.LgrStreamLinkPar\LgrStreamLinkPar.pval OLD
