# Name File for MODFLOW created on 12/14/2015 by ModelMuse
LIST             11 LgrStreamLinkTest.lst REPLACE
DATA(BINARY)      9 LgrStreamLinkTest.cbc REPLACE
DATA            131 LgrStreamLinkTest.bfh_head REPLACE
DATA            132 LgrStreamLinkTest.bfh_flux REPLACE
DIS              12 LgrStreamLinkTest.dis OLD
BAS6             13 LgrStreamLinkTest.bas OLD
OC               39 LgrStreamLinkTest.oc OLD
DATA             37 LgrStreamLinkTest.fhd REPLACE
DATA             38 LgrStreamLinkTest.fdn REPLACE
PCG              18 LgrStreamLinkTest.pcg OLD
LPF              14 LgrStreamLinkTest.lpf OLD
SFR              29 LgrStreamLinkTest.sfr OLD
