# Name File for MODFLOW created on 12/14/2015 by ModelMuse
LIST             11 LgrStreamLinkTest2.lst REPLACE
DATA(BINARY)      9 LgrStreamLinkTest2.cbc REPLACE
DATA            131 LgrStreamLinkTest2.bfh_head REPLACE
DATA            132 LgrStreamLinkTest2.bfh_flux REPLACE
DIS              12 LgrStreamLinkTest2.dis OLD
BAS6             13 LgrStreamLinkTest2.bas OLD
OC               39 LgrStreamLinkTest2.oc OLD
DATA             37 LgrStreamLinkTest2.fhd REPLACE
DATA             38 LgrStreamLinkTest2.fdn REPLACE
PCG              18 LgrStreamLinkTest2.pcg OLD
LPF              14 LgrStreamLinkTest2.lpf OLD
SFR              29 LgrStreamLinkTest2.sfr OLD
PVAL             52 LgrStreamLinkTest2.pval OLD
