# Name File for MODFLOW created on 12/14/2015 by ModelMuse
LIST             11 LgrStreamLink.lst REPLACE
DATA(BINARY)      9 LgrStreamLink.cbc REPLACE
DATA            131 LgrStreamLink.bfh_head REPLACE
DATA            132 LgrStreamLink.bfh_flux REPLACE
DIS              12 LgrStreamLink.dis OLD
BAS6             13 LgrStreamLink.bas OLD
OC               39 LgrStreamLink.oc OLD
DATA             37 LgrStreamLink.fhd REPLACE
DATA             38 LgrStreamLink.fdn REPLACE
PCG              18 LgrStreamLink.pcg OLD
LPF              14 LgrStreamLink.lpf OLD
SFR              29 LgrStreamLink.sfr OLD
