# Name File for MODFLOW created on 2/1/2017 by ModelMuse Version 3.8.1.27
LIST           1011 ..\..\output\output.LgrStreamLinkPar_Child_1\LgrStreamLinkPar_Child_1.lst REPLACE
DATA(BINARY)   1009 ..\..\output\output.LgrStreamLinkPar_Child_1\LgrStreamLinkPar_Child_1.cbc REPLACE
SFR            1029 ..\..\model\model.LgrStreamLinkPar_Child_1\LgrStreamLinkPar_Child_1.sfr OLD
DIS            1012 ..\..\model\model.LgrStreamLinkPar_Child_1\LgrStreamLinkPar_Child_1.dis OLD
BAS6           1013 ..\..\model\model.LgrStreamLinkPar_Child_1\LgrStreamLinkPar_Child_1.bas OLD
OC             1039 ..\..\model\model.LgrStreamLinkPar_Child_1\LgrStreamLinkPar_Child_1.oc OLD
DATA           1037 ..\..\output\output.LgrStreamLinkPar_Child_1\LgrStreamLinkPar_Child_1.fhd REPLACE
DATA           1038 ..\..\output\output.LgrStreamLinkPar_Child_1\LgrStreamLinkPar_Child_1.fdn REPLACE
PCG            1018 ..\..\model\model.LgrStreamLinkPar_Child_1\LgrStreamLinkPar_Child_1.pcg OLD
LPF            1014 ..\..\model\model.LgrStreamLinkPar_Child_1\LgrStreamLinkPar_Child_1.lpf OLD
PVAL           1052 ..\..\model\model.LgrStreamLinkPar_Child_1\LgrStreamLinkPar_Child_1.pval OLD
