# Name File for MODFLOW created on 12/14/2015 by ModelMuse
LIST           1011 LgrStreamLinkTest3_Child_1.lst REPLACE
DATA(BINARY)   1009 LgrStreamLinkTest3_Child_1.cbc REPLACE
SFR            1029 LgrStreamLinkTest3_Child_1.sfr OLD
DIS            1012 LgrStreamLinkTest3_Child_1.dis OLD
BAS6           1013 LgrStreamLinkTest3_Child_1.bas OLD
OC             1039 LgrStreamLinkTest3_Child_1.oc OLD
DATA           1037 LgrStreamLinkTest3_Child_1.fhd REPLACE
DATA           1038 LgrStreamLinkTest3_Child_1.fdn REPLACE
PCG            1018 LgrStreamLinkTest3_Child_1.pcg OLD
LPF            1014 LgrStreamLinkTest3_Child_1.lpf OLD
PVAL           1052 LgrStreamLinkTest3_Child_1.pval OLD
