# Name File for MODFLOW created on 12/14/2015 by ModelMuse
LIST             11 LgrStreamLinkPar.lst REPLACE
DATA(BINARY)      9 LgrStreamLinkPar.cbc REPLACE
DATA            131 LgrStreamLinkPar.bfh_head REPLACE
DATA            132 LgrStreamLinkPar.bfh_flux REPLACE
DIS              12 LgrStreamLinkPar.dis OLD
BAS6             13 LgrStreamLinkPar.bas OLD
OC               39 LgrStreamLinkPar.oc OLD
DATA             37 LgrStreamLinkPar.fhd REPLACE
DATA             38 LgrStreamLinkPar.fdn REPLACE
PCG              18 LgrStreamLinkPar.pcg OLD
LPF              14 LgrStreamLinkPar.lpf OLD
SFR              29 LgrStreamLinkPar.sfr OLD
PVAL             52 LgrStreamLinkPar.pval OLD
