# Name File for MODFLOW created on 2/1/2017 by ModelMuse Version 3.8.1.27
LIST             11 ..\..\output\output.LgrStreamLinkTest\LgrStreamLinkTest.lst REPLACE
DATA(BINARY)      9 ..\..\output\output.LgrStreamLinkTest\LgrStreamLinkTest.cbc REPLACE
DATA            131 ..\..\output\output.LgrStreamLinkTest\LgrStreamLinkTest.bfh_head REPLACE
DATA            132 ..\..\output\output.LgrStreamLinkTest\LgrStreamLinkTest.bfh_flux REPLACE
DIS              12 ..\..\model\model.LgrStreamLinkTest\LgrStreamLinkTest.dis OLD
BAS6             13 ..\..\model\model.LgrStreamLinkTest\LgrStreamLinkTest.bas OLD
OC               39 ..\..\model\model.LgrStreamLinkTest\LgrStreamLinkTest.oc OLD
DATA             37 ..\..\output\output.LgrStreamLinkTest\LgrStreamLinkTest.fhd REPLACE
DATA             38 ..\..\output\output.LgrStreamLinkTest\LgrStreamLinkTest.fdn REPLACE
PCG              18 ..\..\model\model.LgrStreamLinkTest\LgrStreamLinkTest.pcg OLD
LPF              14 ..\..\model\model.LgrStreamLinkTest\LgrStreamLinkTest.lpf OLD
SFR              29 ..\..\model\model.LgrStreamLinkTest\LgrStreamLinkTest.sfr OLD
