# Name File for MODFLOW created on 2/1/2017 by ModelMuse Version 3.8.1.27
LIST             11 ..\..\output\output.LgrStreamLinkTest2\LgrStreamLinkTest2.lst REPLACE
DATA(BINARY)      9 ..\..\output\output.LgrStreamLinkTest2\LgrStreamLinkTest2.cbc REPLACE
DATA            131 ..\..\output\output.LgrStreamLinkTest2\LgrStreamLinkTest2.bfh_head REPLACE
DATA            132 ..\..\output\output.LgrStreamLinkTest2\LgrStreamLinkTest2.bfh_flux REPLACE
DIS              12 ..\..\model\model.LgrStreamLinkTest2\LgrStreamLinkTest2.dis OLD
BAS6             13 ..\..\model\model.LgrStreamLinkTest2\LgrStreamLinkTest2.bas OLD
OC               39 ..\..\model\model.LgrStreamLinkTest2\LgrStreamLinkTest2.oc OLD
DATA             37 ..\..\output\output.LgrStreamLinkTest2\LgrStreamLinkTest2.fhd REPLACE
DATA             38 ..\..\output\output.LgrStreamLinkTest2\LgrStreamLinkTest2.fdn REPLACE
PCG              18 ..\..\model\model.LgrStreamLinkTest2\LgrStreamLinkTest2.pcg OLD
LPF              14 ..\..\model\model.LgrStreamLinkTest2\LgrStreamLinkTest2.lpf OLD
SFR              29 ..\..\model\model.LgrStreamLinkTest2\LgrStreamLinkTest2.sfr OLD
PVAL             52 ..\..\model\model.LgrStreamLinkTest2\LgrStreamLinkTest2.pval OLD
