# Name File for MODFLOW created on 2/1/2017 by ModelMuse Version 3.8.1.27
LIST             11 ..\..\output\output.LgrStreamLink\LgrStreamLink.lst REPLACE
DATA(BINARY)      9 ..\..\output\output.LgrStreamLink\LgrStreamLink.cbc REPLACE
DATA            131 ..\..\output\output.LgrStreamLink\LgrStreamLink.bfh_head REPLACE
DATA            132 ..\..\output\output.LgrStreamLink\LgrStreamLink.bfh_flux REPLACE
DIS              12 ..\..\model\model.LgrStreamLink\LgrStreamLink.dis OLD
BAS6             13 ..\..\model\model.LgrStreamLink\LgrStreamLink.bas OLD
OC               39 ..\..\model\model.LgrStreamLink\LgrStreamLink.oc OLD
DATA             37 ..\..\output\output.LgrStreamLink\LgrStreamLink.fhd REPLACE
DATA             38 ..\..\output\output.LgrStreamLink\LgrStreamLink.fdn REPLACE
PCG              18 ..\..\model\model.LgrStreamLink\LgrStreamLink.pcg OLD
LPF              14 ..\..\model\model.LgrStreamLink\LgrStreamLink.lpf OLD
SFR              29 ..\..\model\model.LgrStreamLink\LgrStreamLink.sfr OLD
