# Name File for MODFLOW created on 12/14/2015 by ModelMuse
LIST             11 LpfTest.lst REPLACE
DATA(BINARY)      9 LpfTest.cbc REPLACE
DIS              12 LpfTest.dis OLD
BAS6             13 LpfTest.bas OLD
OC               39 LpfTest.oc OLD
DATA             37 LpfTest.fhd REPLACE
DATA             38 LpfTest.fdn REPLACE
PCG              18 LpfTest.pcg OLD
LPF              14 LpfTest.lpf OLD
CHD              17 LpfTest.chd OLD
