# OBS: Observation Utility file created on 8/18/2020 by ModelMuse version 4.3.0.0.
BEGIN OPTIONS
    DIGITS      5
    PRINT_INPUT
END OPTIONS

BEGIN CONTINUOUS FILEOUT MF6_TestSfrMawLakMvrUzf.chob_out_chd.csv
  'chd_CHD1' chd CHD1
  'chd_CHD2' chd CHD2
END CONTINUOUS
