# OBS: Observation Utility file created on 8/19/2019 by ModelMuse version 4.0.0.12.
BEGIN OPTIONS
    DIGITS      5
    PRINT_INPUT
END OPTIONS

BEGIN CONTINUOUS FILEOUT MF6_TestSfrMawLak.ob_gw_out_head.csv
  'HeadObs' head     3     4     8
END CONTINUOUS

BEGIN CONTINUOUS FILEOUT MF6_TestSfrMawLak.ob_gw_out_drawdown.csv
  'HeadObs' drawdown     3     4     8
END CONTINUOUS

BEGIN CONTINUOUS FILEOUT MF6_TestSfrMawLak.ob_gw_out_flow-ja-face.csv
  'HeadObs' flow-ja-face     3     4     8        3     4     7
  'HeadObs' flow-ja-face     3     4     8        3     4     9
  'HeadObs' flow-ja-face     3     4     8        3     3     8
  'HeadObs' flow-ja-face     3     4     8        3     5     8
  'HeadObs' flow-ja-face     3     4     8        2     4     8
END CONTINUOUS
