# MVR: Water Mover package file created on 1/12/2024 by ModelMuse version 5.1.1.51.
BEGIN OPTIONS
    PRINT_INPUT
    BUDGET FILEOUT MF6_TestSfrMawLak.mvr_budget
    BUDGETCSV FILEOUT MF6_TestSfrMawLak.mvr_budget.csv
END OPTIONS

BEGIN DIMENSIONS
    MAXMVR      2
    MAXPACKAGES      3
END DIMENSIONS

BEGIN PACKAGES
  LAK-1
  MAW-1
  SFR-1
END PACKAGES

BEGIN PERIOD      1
  MAW-1     1 SFR-1     1 FACTOR     1.000000000000E+000 
  LAK-1     1 SFR-1     9 FACTOR     5.000000000000E-001 
END PERIOD 

