# LAK: Lake package for MODFLOW 6 file created on 12/19/2019 by ModelMuse version 4.1.0.16.
BEGIN OPTIONS
    BOUNDNAMES
    PRINT_INPUT
  PRINT_STAGE
    SAVE_FLOWS
  STAGE FILEOUT 'MF6_TestSfrMawLakMvrUzf.lk_stg'
  BUDGET FILEOUT MF6_TestSfrMawLakMvrUzf.lk_bud
    OBS6 FILEIN MF6_TestSfrMawLakMvrUzf.ob_lak
  SURFDEP   2.000000000000E-001 
  TIME_CONVERSION   1.000000000000E+000 
  LENGTH_CONVERSION   1.000000000000E+000 
  MOVER
END OPTIONS

BEGIN DIMENSIONS
  NLAKES      2
  NOUTLETS      2
  NTABLES      0
END DIMENSIONS

BEGIN PACKAGEDATA
       1  0.000000000000E+000     16 'Lake' 
       2  0.000000000000E+000      7 'Lake2' 
END PACKAGEDATA

BEGIN CONNECTIONDATA
# lakeno iconn cellid(ncelldim)   claktype    bedleak               belev                 telev                 connlen               connwidth
       1     1     1     4     7 HORIZONTAL  5.000000000000E-005  -1.000000000000E+000   0.000000000000E+000   1.000000000000E+002   1.000000000000E+002 
       1     2     1     5     6 HORIZONTAL  5.000000000000E-005  -1.000000000000E+000   0.000000000000E+000   1.000000000000E+002   1.000000000000E+002 
       1     3     1     6     7 HORIZONTAL  5.000000000000E-005  -1.000000000000E+000   0.000000000000E+000   1.000000000000E+002   1.000000000000E+002 
       1     4     1     5     8 HORIZONTAL  5.000000000000E-005  -1.000000000000E+000   0.000000000000E+000   1.000000000000E+002   1.000000000000E+002 
       1     5     1     5     7 HORIZONTAL  5.000000000000E-005  -1.000000000000E+000   0.000000000000E+000   1.000000000000E+002   1.000000000000E+002 
       1     6     1     6     6 HORIZONTAL  5.000000000000E-005  -1.000000000000E+000   0.000000000000E+000   1.000000000000E+002   1.000000000000E+002 
       1     7     1     7     7 HORIZONTAL  5.000000000000E-005  -1.000000000000E+000   0.000000000000E+000   1.000000000000E+002   1.000000000000E+002 
       1     8     1     6     8 HORIZONTAL  5.000000000000E-005  -1.000000000000E+000   0.000000000000E+000   1.000000000000E+002   1.000000000000E+002 
       1     9     1     4     8 HORIZONTAL  5.000000000000E-005  -1.000000000000E+000   0.000000000000E+000   1.000000000000E+002   1.000000000000E+002 
       1    10     1     5     7 HORIZONTAL  5.000000000000E-005  -1.000000000000E+000   0.000000000000E+000   1.000000000000E+002   1.000000000000E+002 
       1    11     1     6     8 HORIZONTAL  5.000000000000E-005  -1.000000000000E+000   0.000000000000E+000   1.000000000000E+002   1.000000000000E+002 
       1    12     1     5     9 HORIZONTAL  5.000000000000E-005  -1.000000000000E+000   0.000000000000E+000   1.000000000000E+002   1.000000000000E+002 
       1    13     1     5     8 HORIZONTAL  5.000000000000E-005  -1.000000000000E+000   0.000000000000E+000   1.000000000000E+002   1.000000000000E+002 
       1    14     1     6     7 HORIZONTAL  5.000000000000E-005  -1.000000000000E+000   0.000000000000E+000   1.000000000000E+002   1.000000000000E+002 
       1    15     1     7     8 HORIZONTAL  5.000000000000E-005  -1.000000000000E+000   0.000000000000E+000   1.000000000000E+002   1.000000000000E+002 
       1    16     1     6     9 HORIZONTAL  5.000000000000E-005  -1.000000000000E+000   0.000000000000E+000   1.000000000000E+002   1.000000000000E+002 
       2     1     1     4     9 HORIZONTAL  1.000000000000E-004  -1.000000000000E+000   0.000000000000E+000   1.000000000000E+002   1.000000000000E+002 
       2     2     1     5     8 HORIZONTAL  1.000000000000E-004  -1.000000000000E+000   0.000000000000E+000   1.000000000000E+002   1.000000000000E+002 
       2     3     1     6     9 HORIZONTAL  1.000000000000E-004  -1.000000000000E+000   0.000000000000E+000   1.000000000000E+002   1.000000000000E+002 
       2     4     1     5    10 HORIZONTAL  1.000000000000E-004  -1.000000000000E+000   0.000000000000E+000   1.000000000000E+002   1.000000000000E+002 
       2     5     1     4    10 HORIZONTAL  1.000000000000E-004  -1.000000000000E+000   0.000000000000E+000   1.000000000000E+002   1.000000000000E+002 
       2     6     1     5     9 HORIZONTAL  1.000000000000E-004  -1.000000000000E+000   0.000000000000E+000   1.000000000000E+002   1.000000000000E+002 
       2     7     1     6    10 HORIZONTAL  1.000000000000E-004  -1.000000000000E+000   0.000000000000E+000   1.000000000000E+002   1.000000000000E+002 
END CONNECTIONDATA

BEGIN OUTLETS
       1     1     2 MANNING  5.000000000000E-001   0.000000000000E+000   3.000000000000E-003   1.000000000000E-003 
       2     1     0 MANNING  5.000000000000E-001   0.000000000000E+000   3.000000000000E-003   1.000000000000E-003 
END OUTLETS

BEGIN PERIOD      1
       1  STATUS ACTIVE
       1  RAINFALL  1.000000000000E-008 
       1  EVAPORATION  1.000000000000E-009 
       1  RUNOFF  0.000000000000E+000 
       1  INFLOW  0.000000000000E+000 
       1  WITHDRAWAL  0.000000000000E+000 
       1  RATE  1.000000000000E+000 
       1  INVERT  5.000000000000E-001 
       1  WIDTH  0.000000000000E+000 
       1  SLOPE  1.000000000000E-003 
       1  ROUGH  3.000000000000E-003 
       2  RATE  1.000000000000E+000 
       2  INVERT  5.000000000000E-001 
       2  WIDTH  0.000000000000E+000 
       2  SLOPE  1.000000000000E-003 
       2  ROUGH  3.000000000000E-003 
       2  STATUS ACTIVE
       2  RAINFALL  1.000000000000E-008 
       2  EVAPORATION  1.000000000000E-009 
       2  RUNOFF  0.000000000000E+000 
       2  INFLOW  0.000000000000E+000 
       2  WITHDRAWAL  0.000000000000E+000 
END PERIOD 

