# OBS: Observation Utility file created on 6/18/2020 by ModelMuse version 4.2.0.19.
BEGIN OPTIONS
    DIGITS      5
    PRINT_INPUT
END OPTIONS

BEGIN CONTINUOUS FILEOUT MF6_TestSfrMawLak.ob_evt_out_evt.csv
  'evt_ETS' evt ETS
END CONTINUOUS

