# Name File for MODFLOW created on 12/3/2021 by ModelMuse Version 4.3.0.74
BEGIN OPTIONS
  LIST MF6_TestSfrMawLakMvrUzf.lst
  PRINT_INPUT
  SAVE_FLOWS
END OPTIONS

BEGIN PACKAGES
  DIS6         MF6_TestSfrMawLakMvrUzf.dis  DIS
  IC6          MF6_TestSfrMawLakMvrUzf.ic  IC
  NPF6         MF6_TestSfrMawLakMvrUzf.npf  NPF
  OBS6         MF6_TestSfrMawLakMvrUzf.ob_gw
  OC6          MF6_TestSfrMawLakMvrUzf.oc  OC
  CHD6         MF6_TestSfrMawLakMvrUzf.chd  CHD-1
  GHB6         MF6_TestSfrMawLakMvrUzf.ghb  GHB-1
  WEL6         MF6_TestSfrMawLakMvrUzf.wel  WEL-1
  RIV6         MF6_TestSfrMawLakMvrUzf.riv  RIV-1
  DRN6         MF6_TestSfrMawLakMvrUzf.drn  DRN-1
  SFR6         MF6_TestSfrMawLakMvrUzf.sfr  SFR-1
  MAW6         MF6_TestSfrMawLakMvrUzf.maw6  MAW-1
  RCH6         MF6_TestSfrMawLakMvrUzf.rch  RCH-1
  EVT6         MF6_TestSfrMawLakMvrUzf.evt  EVT-1
  LAK6         MF6_TestSfrMawLakMvrUzf.lak6  LAK-1
  UZF6         MF6_TestSfrMawLakMvrUzf.uzf  UZF
  MVR6         MF6_TestSfrMawLakMvrUzf.mvr  MVR-1
END PACKAGES
