# OBS: Observation Utility file created on 8/18/2020 by ModelMuse version 4.3.0.0.
BEGIN OPTIONS
    DIGITS      5
    PRINT_INPUT
END OPTIONS

BEGIN CONTINUOUS FILEOUT MF6_TestSfrMawLak.drob_out_drn.csv
  'drn_DRN' drn Drain
END CONTINUOUS
