# Name File for MODFLOW created on 12/3/2021 by ModelMuse Version 4.3.0.74
BEGIN OPTIONS
  LIST ..\..\output\output.MF6_TestSfrMawLak\MF6_TestSfrMawLak.lst
  PRINT_INPUT
  SAVE_FLOWS
END OPTIONS

BEGIN PACKAGES
  DIS6         ..\..\model\model.MF6_TestSfrMawLak\MF6_TestSfrMawLak.dis  DIS
  IC6          ..\..\model\model.MF6_TestSfrMawLak\MF6_TestSfrMawLak.ic  IC
  NPF6         ..\..\model\model.MF6_TestSfrMawLak\MF6_TestSfrMawLak.npf  NPF
  OBS6         ..\..\model\model.MF6_TestSfrMawLak\MF6_TestSfrMawLak.ob_gw
  OC6          ..\..\model\model.MF6_TestSfrMawLak\MF6_TestSfrMawLak.oc  OC
  CHD6         ..\..\model\model.MF6_TestSfrMawLak\MF6_TestSfrMawLak.chd  CHD-1
  GHB6         ..\..\model\model.MF6_TestSfrMawLak\MF6_TestSfrMawLak.ghb  GHB-1
  WEL6         ..\..\model\model.MF6_TestSfrMawLak\MF6_TestSfrMawLak.wel  WEL-1
  RIV6         ..\..\model\model.MF6_TestSfrMawLak\MF6_TestSfrMawLak.riv  RIV-1
  DRN6         ..\..\model\model.MF6_TestSfrMawLak\MF6_TestSfrMawLak.drn  DRN-1
  SFR6         ..\..\model\model.MF6_TestSfrMawLak\MF6_TestSfrMawLak.sfr  SFR-1
  MAW6         ..\..\model\model.MF6_TestSfrMawLak\MF6_TestSfrMawLak.maw6  MAW-1
  RCH6         ..\..\model\model.MF6_TestSfrMawLak\MF6_TestSfrMawLak.rch  RCH-1
  EVT6         ..\..\model\model.MF6_TestSfrMawLak\MF6_TestSfrMawLak.evt  EVT-1
  LAK6         ..\..\model\model.MF6_TestSfrMawLak\MF6_TestSfrMawLak.lak6  LAK-1
  MVR6         ..\..\model\model.MF6_TestSfrMawLak\MF6_TestSfrMawLak.mvr  MVR-1
END PACKAGES
