# OBS: Observation Utility file created on 8/18/2020 by ModelMuse version 4.3.0.0.
BEGIN OPTIONS
    DIGITS      5
    PRINT_INPUT
END OPTIONS

BEGIN CONTINUOUS FILEOUT MF6_TestSfrMawLakMvrUzf.drob_out_drn.csv
  'drn_DRN' drn Drain
  'DRN_MVR' to-mvr Drain
END CONTINUOUS
