# OBS: Observation Utility file created on 1/12/2024 by ModelMuse version 5.1.1.51.
BEGIN OPTIONS
    DIGITS      5
    PRINT_INPUT
END OPTIONS

BEGIN CONTINUOUS FILEOUT MF6_TestSfrMawLakMvrUzf.gbob_out_ghb.csv
  'ghb_GHB' ghb GHB
  'mvr_GHB' to-mvr GHB
END CONTINUOUS
