# OBS: Observation Utility file created on 8/20/2019 by ModelMuse version 4.0.0.12.
BEGIN OPTIONS
    DIGITS      5
    PRINT_INPUT
END OPTIONS

BEGIN CONTINUOUS FILEOUT MF6_TestSfrMawLakMvrUzf.ob_wel_out_wel.csv
  'Well' wel Well
  'Well_MVR' to-mvr Well
END CONTINUOUS

