# OBS: Observation Utility file created on 2/25/2020 by ModelMuse version 4.2.0.0.
BEGIN OPTIONS
    DIGITS      5
    PRINT_INPUT
END OPTIONS

BEGIN CONTINUOUS FILEOUT MF6_TestSfrMawLak.maw_head_ob.csv
 'MAW' head MAW 
END CONTINUOUS

BEGIN CONTINUOUS FILEOUT MF6_TestSfrMawLak.maw_from_mvr_ob.csv
 'MAW' from-mvr MAW 
END CONTINUOUS

BEGIN CONTINUOUS FILEOUT MF6_TestSfrMawLak.maw_flow_rate_ob.csv
 'MAW' maw MAW 
END CONTINUOUS

BEGIN CONTINUOUS FILEOUT MF6_TestSfrMawLak.maw_cell_flow_rate_ob.csv
 'MAW_1' maw     1     1
 'MAW_2' maw     1     2
 'MAW_3' maw     1     3
END CONTINUOUS

BEGIN CONTINUOUS FILEOUT MF6_TestSfrMawLak.maw_pump_rate_ob.csv
 'MAW' rate MAW 
END CONTINUOUS

BEGIN CONTINUOUS FILEOUT MF6_TestSfrMawLak.maw_pump_rate_to_mvr_ob.csv
 'MAW' rate-to-mvr MAW 
END CONTINUOUS

BEGIN CONTINUOUS FILEOUT MF6_TestSfrMawLak.maw_cell_conductance_ob.csv
 'MAW_1' conductance     1     1
 'MAW_2' conductance     1     2
 'MAW_3' conductance     1     3
END CONTINUOUS

BEGIN CONTINUOUS FILEOUT MF6_TestSfrMawLak.maw_flowing_well_conductance_ob.csv
 'MAW' fw-conductance MAW 
END CONTINUOUS

