# OBS: Observation Utility file created on 1/12/2024 by ModelMuse version 5.1.1.51.
BEGIN OPTIONS
    DIGITS      5
    PRINT_INPUT
END OPTIONS

BEGIN CONTINUOUS FILEOUT MF6_TestSfrMawLakMvrUzf.ob_wel_out_wel.csv
  'wel_Well' wel Well
  'mvr_Well' to-mvr Well
END CONTINUOUS
