# UZF6: Unsaturated-Zone Flow Package for MODFLOW 6 file created on 8/20/2019 by ModelMuse version 4.0.0.12.
BEGIN OPTIONS
    PRINT_INPUT
    SAVE_FLOWS
  BUDGET FILEOUT MF6_TestSfrMawLakMvrUzf.uzf_budget
    BOUNDNAMES
  MOVER
  UNSAT_ETWC
  OBS6 FILEIN MF6_TestSfrMawLakMvrUzf.ob_uzf
END OPTIONS

BEGIN DIMENSIONS
  NUZFCELLS    25
  NTRAILWAVES     7
  NWAVESETS    40
END DIMENSIONS

BEGIN PACKAGEDATA
       1     1     4     4     1     0  1.000000000000E+000   1.000000000000E-005   1.000000000000E-001   3.000000000000E-001   2.000000000000E-001   3.500000000000E+000  UZF
       2     1     4     5     1     0  1.000000000000E+000   1.000000000000E-005   1.000000000000E-001   3.000000000000E-001   2.000000000000E-001   3.500000000000E+000  UZF
       3     1     4     6     1     0  1.000000000000E+000   1.000000000000E-005   1.000000000000E-001   3.000000000000E-001   2.000000000000E-001   3.500000000000E+000  UZF
       4     1     4     7     1     0  1.000000000000E+000   1.000000000000E-005   1.000000000000E-001   3.000000000000E-001   2.000000000000E-001   3.500000000000E+000  UZF
       5     1     4     8     1     0  1.000000000000E+000   1.000000000000E-005   1.000000000000E-001   3.000000000000E-001   2.000000000000E-001   3.500000000000E+000  UZF
       6     1     5     4     1     0  1.000000000000E+000   1.000000000000E-005   1.000000000000E-001   3.000000000000E-001   2.000000000000E-001   3.500000000000E+000  UZF
       7     1     5     5     1     0  1.000000000000E+000   1.000000000000E-005   1.000000000000E-001   3.000000000000E-001   2.000000000000E-001   3.500000000000E+000  UZF
       8     1     5     6     1     0  1.000000000000E+000   1.000000000000E-005   1.000000000000E-001   3.000000000000E-001   2.000000000000E-001   3.500000000000E+000  UZF
       9     1     5     7     1     0  1.000000000000E+000   1.000000000000E-005   1.000000000000E-001   3.000000000000E-001   2.000000000000E-001   3.500000000000E+000  UZF
      10     1     5     8     1     0  1.000000000000E+000   1.000000000000E-005   1.000000000000E-001   3.000000000000E-001   2.000000000000E-001   3.500000000000E+000  UZF
      11     1     6     4     1     0  1.000000000000E+000   1.000000000000E-005   1.000000000000E-001   3.000000000000E-001   2.000000000000E-001   3.500000000000E+000  UZF
      12     1     6     5     1     0  1.000000000000E+000   1.000000000000E-005   1.000000000000E-001   3.000000000000E-001   2.000000000000E-001   3.500000000000E+000  UZF
      13     1     6     6     1     0  1.000000000000E+000   1.000000000000E-005   1.000000000000E-001   3.000000000000E-001   2.000000000000E-001   3.500000000000E+000  UZF
      14     1     6     7     1     0  1.000000000000E+000   1.000000000000E-005   1.000000000000E-001   3.000000000000E-001   2.000000000000E-001   3.500000000000E+000  UZF
      15     1     6     8     1     0  1.000000000000E+000   1.000000000000E-005   1.000000000000E-001   3.000000000000E-001   2.000000000000E-001   3.500000000000E+000  UZF
      16     1     7     4     1     0  1.000000000000E+000   1.000000000000E-005   1.000000000000E-001   3.000000000000E-001   2.000000000000E-001   3.500000000000E+000  UZF
      17     1     7     5     1     0  1.000000000000E+000   1.000000000000E-005   1.000000000000E-001   3.000000000000E-001   2.000000000000E-001   3.500000000000E+000  UZF
      18     1     7     6     1     0  1.000000000000E+000   1.000000000000E-005   1.000000000000E-001   3.000000000000E-001   2.000000000000E-001   3.500000000000E+000  UZF
      19     1     7     7     1     0  1.000000000000E+000   1.000000000000E-005   1.000000000000E-001   3.000000000000E-001   2.000000000000E-001   3.500000000000E+000  UZF
      20     1     7     8     1     0  1.000000000000E+000   1.000000000000E-005   1.000000000000E-001   3.000000000000E-001   2.000000000000E-001   3.500000000000E+000  UZF
      21     1     8     4     1     0  1.000000000000E+000   1.000000000000E-005   1.000000000000E-001   3.000000000000E-001   2.000000000000E-001   3.500000000000E+000  UZF
      22     1     8     5     1     0  1.000000000000E+000   1.000000000000E-005   1.000000000000E-001   3.000000000000E-001   2.000000000000E-001   3.500000000000E+000  UZF
      23     1     8     6     1     0  1.000000000000E+000   1.000000000000E-005   1.000000000000E-001   3.000000000000E-001   2.000000000000E-001   3.500000000000E+000  UZF
      24     1     8     7     1     0  1.000000000000E+000   1.000000000000E-005   1.000000000000E-001   3.000000000000E-001   2.000000000000E-001   3.500000000000E+000  UZF
      25     1     8     8     1     0  1.000000000000E+000   1.000000000000E-005   1.000000000000E-001   3.000000000000E-001   2.000000000000E-001   3.500000000000E+000  UZF
END PACKAGEDATA

BEGIN PERIOD      1
       1  1.000000000000E-008   0.000000000000E+000   0.000000000000E+000   0.000000000000E+000   0.000000000000E+000   0.000000000000E+000   0.000000000000E+000 
       2  1.000000000000E-008   0.000000000000E+000   0.000000000000E+000   0.000000000000E+000   0.000000000000E+000   0.000000000000E+000   0.000000000000E+000 
       3  1.000000000000E-008   0.000000000000E+000   0.000000000000E+000   0.000000000000E+000   0.000000000000E+000   0.000000000000E+000   0.000000000000E+000 
       4  1.000000000000E-008   0.000000000000E+000   0.000000000000E+000   0.000000000000E+000   0.000000000000E+000   0.000000000000E+000   0.000000000000E+000 
       5  1.000000000000E-008   0.000000000000E+000   0.000000000000E+000   0.000000000000E+000   0.000000000000E+000   0.000000000000E+000   0.000000000000E+000 
       6  1.000000000000E-008   0.000000000000E+000   0.000000000000E+000   0.000000000000E+000   0.000000000000E+000   0.000000000000E+000   0.000000000000E+000 
       7  1.000000000000E-008   0.000000000000E+000   0.000000000000E+000   0.000000000000E+000   0.000000000000E+000   0.000000000000E+000   0.000000000000E+000 
       8  1.000000000000E-008   0.000000000000E+000   0.000000000000E+000   0.000000000000E+000   0.000000000000E+000   0.000000000000E+000   0.000000000000E+000 
       9  1.000000000000E-008   0.000000000000E+000   0.000000000000E+000   0.000000000000E+000   0.000000000000E+000   0.000000000000E+000   0.000000000000E+000 
      10  1.000000000000E-008   0.000000000000E+000   0.000000000000E+000   0.000000000000E+000   0.000000000000E+000   0.000000000000E+000   0.000000000000E+000 
      11  1.000000000000E-008   0.000000000000E+000   0.000000000000E+000   0.000000000000E+000   0.000000000000E+000   0.000000000000E+000   0.000000000000E+000 
      12  1.000000000000E-008   0.000000000000E+000   0.000000000000E+000   0.000000000000E+000   0.000000000000E+000   0.000000000000E+000   0.000000000000E+000 
      13  1.000000000000E-008   0.000000000000E+000   0.000000000000E+000   0.000000000000E+000   0.000000000000E+000   0.000000000000E+000   0.000000000000E+000 
      14  1.000000000000E-008   0.000000000000E+000   0.000000000000E+000   0.000000000000E+000   0.000000000000E+000   0.000000000000E+000   0.000000000000E+000 
      15  1.000000000000E-008   0.000000000000E+000   0.000000000000E+000   0.000000000000E+000   0.000000000000E+000   0.000000000000E+000   0.000000000000E+000 
      16  1.000000000000E-008   0.000000000000E+000   0.000000000000E+000   0.000000000000E+000   0.000000000000E+000   0.000000000000E+000   0.000000000000E+000 
      17  1.000000000000E-008   0.000000000000E+000   0.000000000000E+000   0.000000000000E+000   0.000000000000E+000   0.000000000000E+000   0.000000000000E+000 
      18  1.000000000000E-008   0.000000000000E+000   0.000000000000E+000   0.000000000000E+000   0.000000000000E+000   0.000000000000E+000   0.000000000000E+000 
      19  1.000000000000E-008   0.000000000000E+000   0.000000000000E+000   0.000000000000E+000   0.000000000000E+000   0.000000000000E+000   0.000000000000E+000 
      20  1.000000000000E-008   0.000000000000E+000   0.000000000000E+000   0.000000000000E+000   0.000000000000E+000   0.000000000000E+000   0.000000000000E+000 
      21  1.000000000000E-008   0.000000000000E+000   0.000000000000E+000   0.000000000000E+000   0.000000000000E+000   0.000000000000E+000   0.000000000000E+000 
      22  1.000000000000E-008   0.000000000000E+000   0.000000000000E+000   0.000000000000E+000   0.000000000000E+000   0.000000000000E+000   0.000000000000E+000 
      23  1.000000000000E-008   0.000000000000E+000   0.000000000000E+000   0.000000000000E+000   0.000000000000E+000   0.000000000000E+000   0.000000000000E+000 
      24  1.000000000000E-008   0.000000000000E+000   0.000000000000E+000   0.000000000000E+000   0.000000000000E+000   0.000000000000E+000   0.000000000000E+000 
      25  1.000000000000E-008   0.000000000000E+000   0.000000000000E+000   0.000000000000E+000   0.000000000000E+000   0.000000000000E+000   0.000000000000E+000 
END PERIOD 

