# OBS: Observation Utility file created on 8/18/2020 by ModelMuse version 4.3.0.0.
BEGIN OPTIONS
    DIGITS      5
    PRINT_INPUT
END OPTIONS

BEGIN CONTINUOUS FILEOUT MF6_TestSfrMawLak.ob_evt_out_evt.csv
  'evt_ETS' evt ETS
END CONTINUOUS
