# WEL: Well package file created on 8/20/2019 by ModelMuse version 4.0.0.12.
BEGIN OPTIONS
    AUXILIARY IFACE
    BOUNDNAMES
    PRINT_INPUT
    SAVE_FLOWS
  MOVER
    OBS6 FILEIN MF6_TestSfrMawLakMvrUzf.ob_wel
    AUTO_FLOW_REDUCE  1.000000000000E-006 
END OPTIONS

BEGIN DIMENSIONS
  MAXBOUND     1
END DIMENSIONS

BEGIN PERIOD      1
     3     9     2 -1.000000000000E-004      0 'Well'  # Data Set 6: Layer Row Column Q IFACE boundname Intersected by Well with formula: -0.0001
END PERIOD 

