# IMS: Iterative Model Solution file created on 12/19/2019 by ModelMuse version 4.1.0.16.
BEGIN OPTIONS
  PRINT_OPTION ALL
  COMPLEXITY SIMPLE
  CSV_OUTPUT FILEOUT MF6_TestSfrMawLakMvrUzf.Solution.CSV
END OPTIONS

BEGIN NONLINEAR
  OUTER_HCLOSE   1.000000000000E-002 
  OUTER_MAXIMUM    100
  UNDER_RELAXATION NONE
  BACKTRACKING_NUMBER    10
END NONLINEAR

BEGIN LINEAR
  INNER_MAXIMUM   100
  INNER_HCLOSE  1.000000000000E-004 
  INNER_RCLOSE  1.000000000000E-001 
  LINEAR_ACCELERATION BICGSTAB
END LINEAR

