# OBS: Observation Utility file created on 8/20/2019 by ModelMuse version 4.0.0.12.
BEGIN OPTIONS
    DIGITS      5
    PRINT_INPUT
END OPTIONS

BEGIN CONTINUOUS FILEOUT MF6_TestSfrMawLakMvrUzf.uzf-gwrch_ob.csv
  UZF uzf-gwrch UZF 
END CONTINUOUS

BEGIN CONTINUOUS FILEOUT MF6_TestSfrMawLakMvrUzf.uzf-gwd_ob.csv
  UZF uzf-gwd UZF 
END CONTINUOUS

BEGIN CONTINUOUS FILEOUT MF6_TestSfrMawLakMvrUzf.uzf-gwd-to-mvr_ob.csv
  UZF uzf-gwd-to-mvr UZF 
END CONTINUOUS

BEGIN CONTINUOUS FILEOUT MF6_TestSfrMawLakMvrUzf.uzf-gwet_ob.csv
  UZF uzf-gwet UZF 
END CONTINUOUS

BEGIN CONTINUOUS FILEOUT MF6_TestSfrMawLakMvrUzf.infiltration_ob.csv
  UZF infiltration UZF 
END CONTINUOUS

BEGIN CONTINUOUS FILEOUT MF6_TestSfrMawLakMvrUzf.from-mvr_ob.csv
  UZF from-mvr UZF 
END CONTINUOUS

BEGIN CONTINUOUS FILEOUT MF6_TestSfrMawLakMvrUzf.rej-inf_ob.csv
  UZF rej-inf UZF 
END CONTINUOUS

BEGIN CONTINUOUS FILEOUT MF6_TestSfrMawLakMvrUzf.rej-inf-to-mvr_ob.csv
  UZF rej-inf-to-mvr UZF 
END CONTINUOUS

BEGIN CONTINUOUS FILEOUT MF6_TestSfrMawLakMvrUzf.uzet_ob.csv
  UZF uzet UZF 
END CONTINUOUS

BEGIN CONTINUOUS FILEOUT MF6_TestSfrMawLakMvrUzf.storage_ob.csv
  UZF storage UZF 
END CONTINUOUS

BEGIN CONTINUOUS FILEOUT MF6_TestSfrMawLakMvrUzf.net-infiltration_ob.csv
  UZF net-infiltration UZF 
END CONTINUOUS

BEGIN CONTINUOUS FILEOUT MF6_TestSfrMawLakMvrUzf.water-content_ob.csv
  UZF1 water-content     1  5.000000000000E+000 
  UZF6 water-content     6  5.000000000000E+000 
  UZF11 water-content    11  5.000000000000E+000 
  UZF16 water-content    16  5.000000000000E+000 
  UZF21 water-content    21  5.000000000000E+000 
  UZF2 water-content     2  5.000000000000E+000 
  UZF7 water-content     7  5.000000000000E+000 
  UZF12 water-content    12  5.000000000000E+000 
  UZF17 water-content    17  5.000000000000E+000 
  UZF22 water-content    22  5.000000000000E+000 
  UZF3 water-content     3  5.000000000000E+000 
  UZF8 water-content     8  5.000000000000E+000 
  UZF13 water-content    13  5.000000000000E+000 
  UZF18 water-content    18  5.000000000000E+000 
  UZF23 water-content    23  5.000000000000E+000 
  UZF4 water-content     4  5.000000000000E+000 
  UZF9 water-content     9  5.000000000000E+000 
  UZF14 water-content    14  5.000000000000E+000 
  UZF19 water-content    19  5.000000000000E+000 
  UZF24 water-content    24  5.000000000000E+000 
  UZF5 water-content     5  5.000000000000E+000 
  UZF10 water-content    10  5.000000000000E+000 
  UZF15 water-content    15  5.000000000000E+000 
  UZF20 water-content    20  5.000000000000E+000 
  UZF25 water-content    25  5.000000000000E+000 
END CONTINUOUS

