# IMS: Iterative Model Solution file created on 9/19/2020 by ModelMuse version 4.3.0.12.
BEGIN OPTIONS
  PRINT_OPTION ALL
  COMPLEXITY SIMPLE
  CSV_OUTER_OUTPUT FILEOUT MF6_TestSfrMawLak.OuterSolution.CSV
  CSV_INNER_OUTPUT FILEOUT MF6_TestSfrMawLak.InnerSolution.CSV
END OPTIONS

BEGIN NONLINEAR
  OUTER_DVCLOSE   1.000000000000E-003 
  OUTER_MAXIMUM     25
  UNDER_RELAXATION NONE
  BACKTRACKING_NUMBER     0
END NONLINEAR

BEGIN LINEAR
  INNER_MAXIMUM    50
  INNER_DVCLOSE  1.000000000000E-003 
  INNER_RCLOSE  1.000000000000E-001 
  LINEAR_ACCELERATION BICGSTAB
END LINEAR

