# MVR: Water Mover package file created on 8/19/2019 by ModelMuse version 4.0.0.12.
BEGIN OPTIONS
    PRINT_INPUT
    BUDGET FILEOUT MF6_TestSfrMawLak.mvr_budget
END OPTIONS

BEGIN DIMENSIONS
    MAXMVR      2
    MAXPACKAGES      3
END DIMENSIONS

BEGIN PACKAGES
  LAK-1
  MAW-1
  SFR-1
END PACKAGES
BEGIN PERIOD      1
  MAW-1     1 SFR-1     1 FACTOR     1.000000000000E+000 
  LAK-1     1 SFR-1     9 FACTOR     5.000000000000E-001 
END PERIOD 

