# ETS: Evapotranspiration Segments package file created on 8/20/2019 by ModelMuse version 4.0.0.12.
BEGIN OPTIONS
  PRINT_INPUT
    SAVE_FLOWS
    BOUNDNAMES
  FIXED_CELL
    OBS6 FILEIN MF6_TestSfrMawLakMvrUzf.ob_evt
END OPTIONS

BEGIN DIMENSIONS
  MAXBOUND    25
  NSEG     1
END DIMENSIONS

BEGIN PERIOD      1
     1    10    10 -1.000000000000E+000   1.000000000000E-008   2.000000000000E+000  'ETS' 
     1    10     9 -1.000000000000E+000   1.000000000000E-008   2.000000000000E+000  'ETS' 
     1    10     8 -1.000000000000E+000   1.000000000000E-008   2.000000000000E+000  'ETS' 
     1    10     7 -1.000000000000E+000   1.000000000000E-008   2.000000000000E+000  'ETS' 
     1    10     6 -1.000000000000E+000   1.000000000000E-008   2.000000000000E+000  'ETS' 
     1     9    10 -1.000000000000E+000   1.000000000000E-008   2.000000000000E+000  'ETS' 
     1     9     9 -1.000000000000E+000   1.000000000000E-008   2.000000000000E+000  'ETS' 
     1     9     8 -1.000000000000E+000   1.000000000000E-008   2.000000000000E+000  'ETS' 
     1     9     7 -1.000000000000E+000   1.000000000000E-008   2.000000000000E+000  'ETS' 
     1     9     6 -1.000000000000E+000   1.000000000000E-008   2.000000000000E+000  'ETS' 
     1     8    10 -1.000000000000E+000   1.000000000000E-008   2.000000000000E+000  'ETS' 
     1     8     9 -1.000000000000E+000   1.000000000000E-008   2.000000000000E+000  'ETS' 
     1     8     8 -1.000000000000E+000   1.000000000000E-008   2.000000000000E+000  'ETS' 
     1     8     7 -1.000000000000E+000   1.000000000000E-008   2.000000000000E+000  'ETS' 
     1     8     6 -1.000000000000E+000   1.000000000000E-008   2.000000000000E+000  'ETS' 
     1     7    10 -1.000000000000E+000   1.000000000000E-008   2.000000000000E+000  'ETS' 
     1     7     9 -1.000000000000E+000   1.000000000000E-008   2.000000000000E+000  'ETS' 
     1     7     8 -1.000000000000E+000   1.000000000000E-008   2.000000000000E+000  'ETS' 
     1     7     7 -1.000000000000E+000   1.000000000000E-008   2.000000000000E+000  'ETS' 
     1     7     6 -1.000000000000E+000   1.000000000000E-008   2.000000000000E+000  'ETS' 
     1     6    10 -1.000000000000E+000   1.000000000000E-008   2.000000000000E+000  'ETS' 
     1     6     9 -1.000000000000E+000   1.000000000000E-008   2.000000000000E+000  'ETS' 
     1     6     8 -1.000000000000E+000   1.000000000000E-008   2.000000000000E+000  'ETS' 
     1     6     7 -1.000000000000E+000   1.000000000000E-008   2.000000000000E+000  'ETS' 
     1     6     6 -1.000000000000E+000   1.000000000000E-008   2.000000000000E+000  'ETS' 
END PERIOD 

