# MAW: Multi-Aquifer Well package file created on 11/17/2019 by ModelMuse version 4.1.0.9.
BEGIN OPTIONS
    BOUNDNAMES
    PRINT_INPUT
  PRINT_HEAD
  HEAD FILEOUT MF6_TestSfrMawLak.maw_head
    SAVE_FLOWS
  BUDGET FILEOUT MF6_TestSfrMawLak.maw_bud
  SHUTDOWN_THETA  7.000000000000E-001 
  SHUTDOWN_KAPPA  1.000000000000E-004 
  MOVER
END OPTIONS

BEGIN DIMENSIONS
  NMAWWELLS     1
END DIMENSIONS

BEGIN PACKAGEDATA
# <wellno> <radius> <bottom> <strt> <condeqn> <ngwfnodes> [<aux(naux)>] [<boundname>]
     1  1.000000000000E+000  -3.000000000000E+001  -1.000000000000E+000  THIEM     3 'MAW' 
END PACKAGEDATA

BEGIN CONNECTIONDATA
# <wellno> <icon> <cellid(ncelldim)> <scrn_top> <scrn_bot> <hk_skin> <radius_skin>
     1     1     1     2     9  0.000000000000E+000  -3.000000000000E+001   1.000000000000E-004   2.000000000000E+000 
     1     2     2     2     9  0.000000000000E+000  -3.000000000000E+001   1.000000000000E-004   2.000000000000E+000 
     1     3     3     2     9  0.000000000000E+000  -3.000000000000E+001   1.000000000000E-004   2.000000000000E+000 
END CONNECTIONDATA

BEGIN PERIOD      1
# <wellno> <mawsetting>
     1 STATUS ACTIVE
     1 FLOWING_WELL  0.000000000000E+000   0.000000000000E+000 
     1 RATE -1.000000000000E-004 
END PERIOD 

