# OBS: Observation Utility file created on 8/20/2019 by ModelMuse version 4.0.0.12.
BEGIN OPTIONS
    DIGITS      5
    PRINT_INPUT
END OPTIONS

BEGIN CONTINUOUS FILEOUT MF6_TestSfrMawLakMvrUzf.ob_evt_out_evt.csv
  'ETS' evt ETS
END CONTINUOUS

