# OBS: Observation Utility file created on 6/18/2020 by ModelMuse version 4.2.0.19.
BEGIN OPTIONS
    DIGITS      5
    PRINT_INPUT
END OPTIONS

BEGIN CONTINUOUS FILEOUT MF6_TestSfrMawLak.chob_out_chd.csv
  'chd_CHD1' chd CHD1
  'chd_CHD2' chd CHD2
END CONTINUOUS

