# RIV: River package file created on 1/8/2024 by ModelMuse version 5.1.1.51.
BEGIN OPTIONS
    AUXILIARY IFACE Chem
    BOUNDNAMES
    PRINT_INPUT
    SAVE_FLOWS
    OBS6 FILEIN Mf6ModelObs.ob_rvob
END OPTIONS

BEGIN DIMENSIONS
  MAXBOUND     1
END DIMENSIONS

BEGIN PERIOD      1
     1     3    10 -1.000000000000E+000   1.000000000000E-008  -2.000000000000E+000      0  1.000000000000E+000  'Object13'  # Data Set 6: Layer Row Column Stage Cond Rbot IFACE Chem boundname
END PERIOD 

