# SFR: MODFLOW-6 Stream Flow Routing package file created on 2/8/2024 by ModelMuse version 5.1.1.53.
BEGIN OPTIONS
  AUXILIARY Chem
    PRINT_INPUT
    PRINT_STAGE
    PRINT_FLOWS
    BOUNDNAMES
    SAVE_FLOWS
    STAGE FILEOUT Mf6Model.stage
    BUDGET FILEOUT Mf6Model.sfr_budget
    BUDGETCSV FILEOUT Mf6Model.sfr_budget.csv
  PACKAGE_CONVERGENCE FILEOUT Mf6Model.SfrConvergence.CSV
    MAXIMUM_ITERATIONS   100
    MAXIMUM_DEPTH_CHANGE  1.000000000000E-005 
END OPTIONS

BEGIN DIMENSIONS
    NREACHES     11
END DIMENSIONS

BEGIN PACKAGEDATA
# <rno>   <cellid>        <rlen>                <rwid>                <rgrd>                <rtp>                 <rbth>                <rhk>                 <man>                <ncon> <ustrf>                  <ndv> [<aux(naux)>] [<boundname>]
# defined by Object14
     1     1     5     2  6.791517045047E+001   1.000000000000E+000   1.000000000000E-003   0.000000000000E+000   1.000000000000E+000   1.000000000000E-004   3.000000000000E-002      1  1.000000000000E+000      0  0.000000000000E+000  Object14
     2     1     6     2  1.010577736303E+002   1.000000000000E+000   1.000000000000E-003   0.000000000000E+000   1.000000000000E+000   1.000000000000E-004   3.000000000000E-002      2  1.000000000000E+000      0  0.000000000000E+000  Object14
     3     1     7     2  4.835560136073E+001   1.000000000000E+000   1.000000000000E-003   0.000000000000E+000   1.000000000000E+000   1.000000000000E-004   3.000000000000E-002      3  1.000000000000E+000      1  0.000000000000E+000  Object14
# defined by Object21
     4     1     7     2  5.123198733743E+001   1.000000000000E+000   1.000000000000E-003   0.000000000000E+000   1.000000000000E+000   1.000000000000E-004   6.000000000000E-002      2  1.000000000000E+000      0  0.000000000000E+000  Object21
     5     1     8     2  1.524533440909E+001   1.000000000000E+000   1.000000000000E-003   0.000000000000E+000   1.000000000000E+000   1.000000000000E-004   6.000000000000E-002      2  1.000000000000E+000      0  0.000000000000E+000  Object21
     6     1     8     3  1.343998026614E+002   1.000000000000E+000   1.000000000000E-003   0.000000000000E+000   1.000000000000E+000   1.000000000000E-004   6.000000000000E-002      2  1.000000000000E+000      0  0.000000000000E+000  Object21
     7     1     8     4  2.737043879697E-002   1.000000000000E+000   1.000000000000E-003   0.000000000000E+000   1.000000000000E+000   1.000000000000E-004   6.000000000000E-002      2  1.000000000000E+000      0  0.000000000000E+000  Object21
     8     1     9     4  9.414883536877E+001   1.000000000000E+000   1.000000000000E-003   0.000000000000E+000   1.000000000000E+000   1.000000000000E-004   6.000000000000E-002      1  1.000000000000E+000      0  0.000000000000E+000  Object21
# defined by Object22
     9     1     7     2  2.078853046595E+001   1.000000000000E+000   1.000000000000E-003   0.000000000000E+000   1.000000000000E+000   1.000000000000E-004   9.000000000000E-002      2  0.000000000000E+000      0  0.000000000000E+000  Object22
    10     1     8     2  1.000000000000E+002   1.000000000000E+000   1.000000000000E-003   0.000000000000E+000   1.000000000000E+000   1.000000000000E-004   9.000000000000E-002      2  1.000000000000E+000      0  0.000000000000E+000  Object22
    11     1     9     2  9.874551971326E+001   1.000000000000E+000   1.000000000000E-003   0.000000000000E+000   1.000000000000E+000   1.000000000000E-004   9.000000000000E-002      1  1.000000000000E+000      0  0.000000000000E+000  Object22
END PACKAGEDATA

BEGIN CONNECTIONDATA
# defined by Object14
     1    -2
     2     1    -3
     3     2    -4    -9
# defined by Object21
     4    -5     3
     5     4    -6
     6     5    -7
     7     6    -8
     8     7
# defined by Object22
     9   -10     3
    10     9   -11
    11    10
END CONNECTIONDATA

BEGIN DIVERSIONS
     3     1     9 FRACTION
End DIVERSIONS

BEGIN PERIOD      1
# rno sfrsetting (defined by Object14)
     1 STATUS ACTIVE
     1 UPSTREAM_FRACTION  1.000000000000E+000 
     1 INFLOW  0.000000000000E+000 
     1 RAINFALL  0.000000000000E+000 
     1 EVAPORATION  0.000000000000E+000 
     1 RUNOFF  0.000000000000E+000 
     1 MANNING  3.000000000000E-002 

     2 STATUS ACTIVE
     2 UPSTREAM_FRACTION  1.000000000000E+000 
     2 INFLOW  0.000000000000E+000 
     2 RAINFALL  0.000000000000E+000 
     2 EVAPORATION  0.000000000000E+000 
     2 RUNOFF  0.000000000000E+000 
     2 MANNING  3.000000000000E-002 

     3 STATUS ACTIVE
     3 UPSTREAM_FRACTION  1.000000000000E+000 
     3 INFLOW  0.000000000000E+000 
     3 RAINFALL  0.000000000000E+000 
     3 EVAPORATION  0.000000000000E+000 
     3 RUNOFF  0.000000000000E+000 
     3 MANNING  3.000000000000E-002 
     3 DIVERSION     1  1.000000000000E-001 

     3 AUXILIARY  Chem  0.000000000000E+000 
# rno sfrsetting (defined by Object21)
     4 STATUS ACTIVE
     4 UPSTREAM_FRACTION  1.000000000000E+000 
     4 INFLOW  2.000000000000E+000 
     4 RAINFALL  3.000000000000E+000 
     4 EVAPORATION  4.000000000000E+000 
     4 RUNOFF  5.000000000000E+000 
     4 MANNING  6.000000000000E-002 

     5 STATUS ACTIVE
     5 UPSTREAM_FRACTION  1.000000000000E+000 
     5 INFLOW  0.000000000000E+000 
     5 RAINFALL  3.000000000000E+000 
     5 EVAPORATION  4.000000000000E+000 
     5 RUNOFF  5.000000000000E+000 
     5 MANNING  6.000000000000E-002 

     6 STATUS ACTIVE
     6 UPSTREAM_FRACTION  1.000000000000E+000 
     6 INFLOW  0.000000000000E+000 
     6 RAINFALL  3.000000000000E+000 
     6 EVAPORATION  4.000000000000E+000 
     6 RUNOFF  5.000000000000E+000 
     6 MANNING  6.000000000000E-002 

     7 STATUS ACTIVE
     7 UPSTREAM_FRACTION  1.000000000000E+000 
     7 INFLOW  0.000000000000E+000 
     7 RAINFALL  3.000000000000E+000 
     7 EVAPORATION  4.000000000000E+000 
     7 RUNOFF  5.000000000000E+000 
     7 MANNING  6.000000000000E-002 

     8 STATUS ACTIVE
     8 UPSTREAM_FRACTION  1.000000000000E+000 
     8 INFLOW  0.000000000000E+000 
     8 RAINFALL  3.000000000000E+000 
     8 EVAPORATION  4.000000000000E+000 
     8 RUNOFF  5.000000000000E+000 
     8 MANNING  6.000000000000E-002 

     8 AUXILIARY  Chem  0.000000000000E+000 
# rno sfrsetting (defined by Object22)
     9 STATUS ACTIVE
     9 UPSTREAM_FRACTION  0.000000000000E+000 
     9 INFLOW  5.000000000000E+000 
     9 RAINFALL  6.000000000000E+000 
     9 EVAPORATION  7.000000000000E+000 
     9 RUNOFF  8.000000000000E+000 
     9 MANNING  9.000000000000E-002 

    10 STATUS ACTIVE
    10 UPSTREAM_FRACTION  1.000000000000E+000 
    10 INFLOW  0.000000000000E+000 
    10 RAINFALL  6.000000000000E+000 
    10 EVAPORATION  7.000000000000E+000 
    10 RUNOFF  8.000000000000E+000 
    10 MANNING  9.000000000000E-002 

    11 STATUS ACTIVE
    11 UPSTREAM_FRACTION  1.000000000000E+000 
    11 INFLOW  0.000000000000E+000 
    11 RAINFALL  6.000000000000E+000 
    11 EVAPORATION  7.000000000000E+000 
    11 RUNOFF  8.000000000000E+000 
    11 MANNING  9.000000000000E-002 

    11 AUXILIARY  Chem  0.000000000000E+000 
END PERIOD 

BEGIN PERIOD      2
# rno sfrsetting (defined by Object14)
     1 STATUS ACTIVE
     1 UPSTREAM_FRACTION  1.000000000000E+000 
     1 INFLOW  0.000000000000E+000 
     1 RAINFALL  0.000000000000E+000 
     1 EVAPORATION  0.000000000000E+000 
     1 RUNOFF  0.000000000000E+000 
     1 MANNING  3.000000000000E-002 

     2 STATUS ACTIVE
     2 UPSTREAM_FRACTION  1.000000000000E+000 
     2 INFLOW  0.000000000000E+000 
     2 RAINFALL  0.000000000000E+000 
     2 EVAPORATION  0.000000000000E+000 
     2 RUNOFF  0.000000000000E+000 
     2 MANNING  3.000000000000E-002 

     3 STATUS ACTIVE
     3 UPSTREAM_FRACTION  1.000000000000E+000 
     3 INFLOW  0.000000000000E+000 
     3 RAINFALL  0.000000000000E+000 
     3 EVAPORATION  0.000000000000E+000 
     3 RUNOFF  0.000000000000E+000 
     3 MANNING  3.000000000000E-002 
     3 DIVERSION     1  1.000000000000E-001 

     3 AUXILIARY  Chem  0.000000000000E+000 
# rno sfrsetting (defined by Object21)
     4 STATUS ACTIVE
     4 UPSTREAM_FRACTION  1.000000000000E+000 
     4 INFLOW  2.000000000000E+000 
     4 RAINFALL  3.000000000000E+000 
     4 EVAPORATION  4.000000000000E+000 
     4 RUNOFF  5.000000000000E+000 
     4 MANNING  6.000000000000E-002 

     5 STATUS ACTIVE
     5 UPSTREAM_FRACTION  1.000000000000E+000 
     5 INFLOW  0.000000000000E+000 
     5 RAINFALL  3.000000000000E+000 
     5 EVAPORATION  4.000000000000E+000 
     5 RUNOFF  5.000000000000E+000 
     5 MANNING  6.000000000000E-002 

     6 STATUS ACTIVE
     6 UPSTREAM_FRACTION  1.000000000000E+000 
     6 INFLOW  0.000000000000E+000 
     6 RAINFALL  3.000000000000E+000 
     6 EVAPORATION  4.000000000000E+000 
     6 RUNOFF  5.000000000000E+000 
     6 MANNING  6.000000000000E-002 

     7 STATUS ACTIVE
     7 UPSTREAM_FRACTION  1.000000000000E+000 
     7 INFLOW  0.000000000000E+000 
     7 RAINFALL  3.000000000000E+000 
     7 EVAPORATION  4.000000000000E+000 
     7 RUNOFF  5.000000000000E+000 
     7 MANNING  6.000000000000E-002 

     8 STATUS ACTIVE
     8 UPSTREAM_FRACTION  1.000000000000E+000 
     8 INFLOW  0.000000000000E+000 
     8 RAINFALL  3.000000000000E+000 
     8 EVAPORATION  4.000000000000E+000 
     8 RUNOFF  5.000000000000E+000 
     8 MANNING  6.000000000000E-002 

     8 AUXILIARY  Chem  0.000000000000E+000 
# rno sfrsetting (defined by Object22)
     9 STATUS ACTIVE
     9 UPSTREAM_FRACTION  0.000000000000E+000 
     9 INFLOW  5.000000000000E+000 
     9 RAINFALL  6.000000000000E+000 
     9 EVAPORATION  7.000000000000E+000 
     9 RUNOFF  8.000000000000E+000 
     9 MANNING  9.000000000000E-002 

    10 STATUS ACTIVE
    10 UPSTREAM_FRACTION  1.000000000000E+000 
    10 INFLOW  0.000000000000E+000 
    10 RAINFALL  6.000000000000E+000 
    10 EVAPORATION  7.000000000000E+000 
    10 RUNOFF  8.000000000000E+000 
    10 MANNING  9.000000000000E-002 

    11 STATUS ACTIVE
    11 UPSTREAM_FRACTION  1.000000000000E+000 
    11 INFLOW  0.000000000000E+000 
    11 RAINFALL  6.000000000000E+000 
    11 EVAPORATION  7.000000000000E+000 
    11 RUNOFF  8.000000000000E+000 
    11 MANNING  9.000000000000E-002 

    11 AUXILIARY  Chem  0.000000000000E+000 
END PERIOD 

