# LAK: Lake package for MODFLOW 6 file created on 2/23/2024 by ModelMuse version 5.1.1.56.
BEGIN OPTIONS
  AUXILIARY Chem
    BOUNDNAMES
    PRINT_INPUT
    SAVE_FLOWS
  PACKAGE_CONVERGENCE FILEOUT Mf6ModelObs.LakConvergence.CSV
  SURFDEP   2.000000000000E-001 
  MAXIMUM_ITERATIONS    100
  MAXIMUM_STAGE_CHANGE   1.000000000000E-005 
  TIME_CONVERSION   1.000000000000E+000 
  LENGTH_CONVERSION   1.000000000000E+000 
END OPTIONS

BEGIN DIMENSIONS
  NLAKES      1
  NOUTLETS      0
  NTABLES      0
END DIMENSIONS

BEGIN PACKAGEDATA
# <lakeno> <strt> <nlakeconn> [<aux(naux)>] [<boundname>]
       1  0.000000000000E+000      5  0.000000000000E+000  'Object8' 
END PACKAGEDATA

BEGIN CONNECTIONDATA
# lakeno iconn cellid(ncelldim)   claktype    bedleak               belev                 telev                 connlen               connwidth
       1     1     1     2     4 HORIZONTAL  1.000000000000E-009  -5.000000000000E+000  -1.000000000000E+000   5.000000000000E+001   1.000000000000E+002 
       1     2     1     3     3 HORIZONTAL  1.000000000000E-009  -5.000000000000E+000  -1.000000000000E+000   5.000000000000E+001   1.000000000000E+002 
       1     3     1     4     4 HORIZONTAL  1.000000000000E-009  -5.000000000000E+000  -1.000000000000E+000   5.000000000000E+001   1.000000000000E+002 
       1     4     1     3     5 HORIZONTAL  1.000000000000E-009  -5.000000000000E+000  -1.000000000000E+000   5.000000000000E+001   1.000000000000E+002 
       1     5     2     3     4   VERTICAL  1.000000000000E-009  -5.000000000000E+000  -1.000000000000E+000   1.000000000000E+000   0.000000000000E+000 
END CONNECTIONDATA

BEGIN PERIOD      1
       1  STATUS ACTIVE
       1  RAINFALL  0.000000000000E+000 
       1  EVAPORATION  0.000000000000E+000 
       1  RUNOFF  0.000000000000E+000 
       1  INFLOW  0.000000000000E+000 
       1  WITHDRAWAL  0.000000000000E+000 
END PERIOD 

