# OBS: Observation Utility file created on 1/8/2024 by ModelMuse version 5.1.1.51.
BEGIN OPTIONS
    DIGITS     10
    PRINT_INPUT
END OPTIONS

BEGIN CONTINUOUS FILEOUT Mf6ModelObs.ob_wel_out_wel.csv
  'wel_WelObs' wel Object16
END CONTINUOUS
