# MAW: Multi-Aquifer Well package file created on 1/8/2024 by ModelMuse version 5.1.1.51.
BEGIN OPTIONS
  AUXILIARY Chem
    BOUNDNAMES
    PRINT_INPUT
  PRINT_HEAD
  HEAD FILEOUT Mf6ModelObs.maw_head
    SAVE_FLOWS
  BUDGET FILEOUT Mf6ModelObs.maw_bud
  FLOWING_WELLS
  SHUTDOWN_THETA  7.000000000000E-001 
  SHUTDOWN_KAPPA  1.000000000000E-004 
    OBS6 FILEIN Mf6ModelObs.ob_maw
  MOVER
END OPTIONS

BEGIN DIMENSIONS
  NMAWWELLS     2
END DIMENSIONS

BEGIN PACKAGEDATA
# <wellno> <radius> <bottom> <strt> <condeqn> <ngwfnodes> [<aux(naux)>] [<boundname>]
     1  1.000000000000E+000  -2.500000000000E+001   0.000000000000E+000  THIEM     3  0.000000000000E+000  'Object9' 
     2  1.100000000000E+000  -2.510000000000E+001   1.000000000000E-001  SKIN     3  0.000000000000E+000  'Object20' 
END PACKAGEDATA

BEGIN CONNECTIONDATA
# <wellno> <icon> <cellid(ncelldim)> <scrn_top> <scrn_bot> <hk_skin> <radius_skin>
     1     1     1     3     6  0.000000000000E+000  -2.500000000000E+001   1.000000000000E-009   2.000000000000E+000 
     1     2     2     3     6  0.000000000000E+000  -2.500000000000E+001   1.000000000000E-009   2.000000000000E+000 
     1     3     3     3     6  0.000000000000E+000  -2.500000000000E+001   1.000000000000E-009   2.000000000000E+000 
     2     1     1     7     3  1.000000000000E-001  -2.510000000000E+001   1.100000000000E-005   2.300000000000E+000 
     2     2     2     7     3  1.000000000000E-001  -2.510000000000E+001   1.100000000000E-005   2.300000000000E+000 
     2     3     3     7     3  1.000000000000E-001  -2.510000000000E+001   1.100000000000E-005   2.300000000000E+000 
END CONNECTIONDATA

BEGIN PERIOD      1
# <wellno> <mawsetting>
     1 STATUS ACTIVE
     1 RATE  1.000000000000E+000 
       1  AUXILIARY  Chem  0.000000000000E+000 
     2 STATUS ACTIVE
     2 RATE  1.100000000000E+000 
     2 HEAD_LIMIT  2.300000000000E+000 
       2  AUXILIARY  Chem  0.000000000000E+000 
END PERIOD 

BEGIN PERIOD      2
# <wellno> <mawsetting>
     1 STATUS ACTIVE
     1 RATE  1.000000000000E+000 
       1  AUXILIARY  Chem  0.000000000000E+000 
     2 STATUS CONSTANT
     2 FLOWING_WELL -1.000000000000E-001   1.200000000000E+000   3.000000000000E-001 
     2 RATE  0.000000000000E+000 
     2 WELL_HEAD  1.000000000000E-001 
     2 RATE_SCALING -1.500000000000E+001   5.000000000000E+000 
       2  AUXILIARY  Chem  0.000000000000E+000 
END PERIOD 

