# DRN: Drain package file created on 6/7/2024 by ModelMuse version 5.2.0.13.
BEGIN OPTIONS
    AUXILIARY IFACE DDRN
    BOUNDNAMES
    PRINT_INPUT
    SAVE_FLOWS
    OBS6 FILEIN Mf6ModelObs.ob_drob
    AUXDEPTHNAME DDRN
END OPTIONS

BEGIN DIMENSIONS
  MAXBOUND     1
END DIMENSIONS

BEGIN PERIOD      1
     1     1     7 -1.000000000000E+000   1.000000000000E-008      0  0.000000000000E+000  'Object6'  # Data Set 6: Layer Row Column Elevation Cond IFACE DDRN boundname
END PERIOD 

BEGIN PERIOD      2
     1     1     7 -1.000000000000E+000   1.000000000000E-008      0  0.000000000000E+000  'Object6'  # Data Set 6: Layer Row Column Elevation Cond IFACE DDRN boundname
END PERIOD 
