# Initial Conditions Package file created on 1/8/2024 by ModelMuse version 5.1.1.51.
BEGIN GRIDDATA
  STRT LAYERED IPRN    12
    CONSTANT   0.000000000000E+000  # STRT Upper Aquifer

    CONSTANT   0.000000000000E+000  # STRT Middle Aquifer

    CONSTANT   0.000000000000E+000  # STRT Lower Aquifer

END GRIDDATA

