# ETS: Evapotranspiration Segments package file created on 8/21/2023 by ModelMuse version 5.1.1.35.
BEGIN OPTIONS
  AUXILIARY IFACE Chem
  PRINT_INPUT
    SAVE_FLOWS
    BOUNDNAMES
  FIXED_CELL
END OPTIONS

BEGIN DIMENSIONS
  MAXBOUND     1
  NSEG     2
END DIMENSIONS

BEGIN PERIOD      1
     1     1     9 -1.000000000000E+000   1.000000000000E-012   5.000000000000E+000   5.000000000000E-001   6.000000000000E-001      0  0.000000000000E+000  'Object7' 
END PERIOD 

BEGIN PERIOD      2
     1     1     9 -1.000000000000E+000   1.000000000000E-012   5.000000000000E+000   5.000000000000E-001   6.000000000000E-001      0  0.000000000000E+000  'Object7' 
END PERIOD 

