# Discretization File created on 1/8/2024 by ModelMuse version 5.1.1.51.
# Upper left corner: (0, 0)
# Lower left corner: (0, -1000)
# Upper right corner: (1000, 0)
# Lower right corner: (1000, -1000)
# Grid angle (in degrees counterclockwise): 0
# Number of active cells = 299.
BEGIN OPTIONS
  LENGTH_UNITS METERS
  XORIGIN  0.000000000000E+000 
  YORIGIN -1.000000000000E+003 
  ANGROT  0.000000000000E+000 
END OPTIONS

BEGIN DIMENSIONS
  NLAY      3
  NROW     10
  NCOL     10
END DIMENSIONS


BEGIN GRIDDATA
  DELR IPRN    12
    CONSTANT   1.000000000000E+002  # DELR

  DELC IPRN    12
    CONSTANT   1.000000000000E+002  # DELC

  TOP LAYERED IPRN    12
    CONSTANT   0.000000000000E+000  # TOP

  BOTM LAYERED IPRN    12
    CONSTANT  -1.000000000000E+001  # BOTM, Upper Aquifer

    CONSTANT  -2.000000000000E+001  # BOTM, Middle Aquifer

    CONSTANT  -3.000000000000E+001  # BOTM, Lower Aquifer

  IDOMAIN LAYERED
    INTERNAL IPRN      5 # IDOMAIN 1
           1     1     1     1     1     1     1     1     1     1
           1     1     1     1     1     1     1     1     1     1
           1     1     1     0     1     1     1     1     1     1
           1     1     1     1     1     1     1     1     1     1
           1     1     1     1     1     1     1     1     1     1
           1     1     1     1     1     1     1     1     1     1
           1     1     1     1     1     1     1     1     1     1
           1     1     1     1     1     1     1     1     1     1
           1     1     1     1     1     1     1     1     1     1
           1     1     1     1     1     1     1     1     1     1
    CONSTANT      1 # IDOMAIN 2
    CONSTANT      1 # IDOMAIN 3
END GRIDDATA

