# Output Control file created on 8/21/2023 by ModelMuse version 5.1.1.35.
BEGIN OPTIONS
  BUDGET FILEOUT 'Mf6Model.Chem.cbc'
  CONCENTRATION FILEOUT 'Mf6Model.Chem.conc'
END OPTIONS

BEGIN PERIOD      1
  SAVE CONCENTRATION ALL
  PRINT BUDGET ALL
  SAVE BUDGET ALL
END PERIOD 

BEGIN PERIOD      2
  SAVE CONCENTRATION ALL
  PRINT BUDGET ALL
  SAVE BUDGET ALL
END PERIOD 

