# Output Control file created on 8/21/2023 by ModelMuse version 5.1.1.35.
BEGIN OPTIONS
  BUDGET FILEOUT 'Mf6Model.cbc'
  HEAD FILEOUT 'Mf6Model.bhd'
END OPTIONS

BEGIN PERIOD      1
  SAVE HEAD ALL
  PRINT BUDGET ALL
  SAVE BUDGET ALL
END PERIOD 

BEGIN PERIOD      2
  SAVE HEAD ALL
  PRINT BUDGET ALL
  SAVE BUDGET ALL
END PERIOD 

