# RCH: Recharge package file created on 8/21/2023 by ModelMuse version 5.1.1.35.
BEGIN OPTIONS
  AUXILIARY IFACE Chem
  PRINT_INPUT
    SAVE_FLOWS
    BOUNDNAMES
  FIXED_CELL
END OPTIONS

BEGIN DIMENSIONS
  MAXBOUND     1
END DIMENSIONS

BEGIN PERIOD      1
     1     3     8  1.000000000000E-009      0  1.000000000000E+000  'Object11' 
END PERIOD 

BEGIN PERIOD      2
     1     3     8  1.000000000000E-009      0  1.000000000000E+000  'Object11' 
END PERIOD 

