# MVR: Water Mover package file created on 1/29/2025 by ModelMuse version 5.3.1.6.
BEGIN OPTIONS
    PRINT_INPUT
    BUDGET FILEOUT Mf6Model.mvr_budget
    BUDGETCSV FILEOUT Mf6Model.mvr_budget.csv
END OPTIONS

BEGIN DIMENSIONS
    MAXMVR      1
    MAXPACKAGES      2
END DIMENSIONS

BEGIN PACKAGES
  GHB-1
  MAW-1
END PACKAGES

# For the Lake Package, ID1 for the lake source is the lake outlet number NOT the lake number.
# ID2 for the lake as a receiver is the lake number
BEGIN PERIOD      1
  GHB-1     1 MAW-1     1 FACTOR     1.000000000000E-001 
END PERIOD 

BEGIN PERIOD      2
  GHB-1     1 MAW-1     1 FACTOR     1.000000000000E-001 
END PERIOD 

