# Output Control file created on 1/8/2024 by ModelMuse version 5.1.1.51.
BEGIN OPTIONS
  BUDGET FILEOUT 'Mf6ModelObs.cbc'
  HEAD FILEOUT 'Mf6ModelObs.bhd'
END OPTIONS

BEGIN PERIOD      1
  SAVE HEAD ALL
  PRINT BUDGET ALL
  SAVE BUDGET ALL
END PERIOD 

BEGIN PERIOD      2
  SAVE HEAD ALL
  PRINT BUDGET ALL
  SAVE BUDGET ALL
END PERIOD 

