BEGIN OPTIONS
  PRINT_INPUT
END OPTIONS

BEGIN TIMING
  TDIS6 'Mf6ModelObs.tdis'
END TIMING

BEGIN MODELS
  GWF6 'Mf6ModelObs.nam' 'MODFLOW'
  GWT6 'Mf6ModelObs.Chem.Gwt_nam' 'Chem'
END MODELS

BEGIN EXCHANGES
  GWF6-GWT6 Mf6ModelObs.Chem.gwfgwt MODFLOW Chem
END EXCHANGES

BEGIN SOLUTIONGROUP     1
  MXITER     1
  IMS6 'Mf6ModelObs.ims' 'MODFLOW' 
  IMS6 'Mf6ModelObs.Chem.ims' 'Chem' 
END SOLUTIONGROUP

