# SSM: GWT Source and Sink Mixing Package file created on 6/21/2024 by ModelMuse version 5.2.0.18.
BEGIN OPTIONS
    SAVE_FLOWS
END OPTIONS

BEGIN SOURCES
  CHD-1 AUX Chem
  GHB-1 AUX Chem
  WEL-1 AUX Chem
  RIV-1 AUX Chem
  RCH-1 AUXMIXED Chem
  EVT-1 AUXMIXED Chem
END SOURCES
