# SSM: GWT Source and Sink Mixing Package file created on 1/8/2024 by ModelMuse version 5.1.1.51.
BEGIN OPTIONS
    SAVE_FLOWS
END OPTIONS

BEGIN SOURCES
  CHD-1 AUX Chem
  GHB-1 AUX Chem
  WEL-1 AUX Chem
  RIV-1 AUX Chem
  RCH-1 AUXMIXED Chem
END SOURCES
