# CNC: GWT Constant Concentration Package file created on 6/7/2024 by ModelMuse version 5.2.0.13.
BEGIN OPTIONS
    AUXILIARY IFACE
    BOUNDNAMES
    PRINT_INPUT
    SAVE_FLOWS
    OBS6 FILEIN Mf6ModelObs.Chem.ob_cnc
END OPTIONS

BEGIN DIMENSIONS
  MAXBOUND     1
END DIMENSIONS

BEGIN PERIOD      1
     1     5     8  1.000000000000E+000      0 'Object17'  # Stress periods: Layer Row Column Conc IFACE boundname
END PERIOD 

BEGIN PERIOD      2
     1     5     8  1.000000000000E+000      0 'Object17'  # Stress periods: Layer Row Column Conc IFACE boundname
END PERIOD 
