# UZF6: Unsaturated-Zone Flow Package for MODFLOW 6 file created on 8/21/2023 by ModelMuse version 5.1.1.35.
BEGIN OPTIONS
    PRINT_INPUT
    SAVE_FLOWS
  BUDGET FILEOUT Mf6Model.uzf_budget
  PACKAGE_CONVERGENCE FILEOUT Mf6Model.UzfConvergence.CSV
    BOUNDNAMES
  AUXILIARY Chem
END OPTIONS

BEGIN DIMENSIONS
  NUZFCELLS     1
  NTRAILWAVES     7
  NWAVESETS    40
END DIMENSIONS

BEGIN PACKAGEDATA
# <iuzno> <cellid(ncelldim)> <landflag> <ivertcon> <surfdep> <vks> <thtr> <thts> <thti> <eps> [<boundname>]
       1     1     5     4     1     0  1.000000000000E+000   1.000000000000E-005   2.000000000000E-001   3.500000000000E-001   3.000000000000E-001   3.500000000000E+000  Object15
END PACKAGEDATA

BEGIN PERIOD      1
       1  1.000000000000E+000   0.000000000000E+000   0.000000000000E+000   0.000000000000E+000   0.000000000000E+000   0.000000000000E+000   0.000000000000E+000   0.000000000000E+000 
END PERIOD 

BEGIN PERIOD      2
       1  1.000000000000E+000   0.000000000000E+000   0.000000000000E+000   0.000000000000E+000   0.000000000000E+000   0.000000000000E+000   0.000000000000E+000   0.000000000000E+000 
END PERIOD 

