# BUY: Buoyancy Package file created on 1/8/2024 by ModelMuse version 5.1.1.51.
BEGIN OPTIONS
  DENSEREF  9.970800000000E+002 
END OPTIONS

BEGIN DIMENSIONS
  NRHOSPECIES     1
END DIMENSIONS

BEGIN PACKAGEDATA
     1  0.000000000000E+000   0.000000000000E+000  Chem Chem
END PACKAGEDATA

