# MST: Mobile Storage and Transfer Package file created on 1/8/2024 by ModelMuse version 5.1.1.51.
BEGIN OPTIONS
    SAVE_FLOWS
  ZERO_ORDER_DECAY
  SORPTION LINEAR
END OPTIONS

BEGIN GRIDDATA
  POROSITY LAYERED IPRN    12
    CONSTANT   2.500000000000E-001  # POROSITY 1

    CONSTANT   2.500000000000E-001  # POROSITY 2

    CONSTANT   2.500000000000E-001  # POROSITY 3

  DECAY LAYERED IPRN    12
    CONSTANT   1.000000000000E-003  # DECAY 1

    CONSTANT   1.000000000000E-003  # DECAY 2

    CONSTANT   1.000000000000E-003  # DECAY 3

  DECAY_SORBED LAYERED IPRN    12
    CONSTANT   1.000000000000E-003  # DECAY_SORBED 1

    CONSTANT   1.000000000000E-003  # DECAY_SORBED 2

    CONSTANT   1.000000000000E-003  # DECAY_SORBED 3

  BULK_DENSITY LAYERED IPRN    12
    CONSTANT   1.700000000000E+000  # BULK_DENSITY 1

    CONSTANT   1.700000000000E+000  # BULK_DENSITY 2

    CONSTANT   1.700000000000E+000  # BULK_DENSITY 3

  DISTCOEF LAYERED IPRN    12
    CONSTANT   1.760000000000E-001  # DISTCOEF 1

    CONSTANT   1.760000000000E-001  # DISTCOEF 2

    CONSTANT   1.760000000000E-001  # DISTCOEF 3

END GRIDDATA

