# MVR: Water Mover package file created on 8/21/2023 by ModelMuse version 5.1.1.35.
BEGIN OPTIONS
    PRINT_INPUT
    BUDGET FILEOUT Mf6Model.mvr_budget
    BUDGETCSV FILEOUT Mf6Model.mvr_budget.csv
END OPTIONS

BEGIN DIMENSIONS
    MAXMVR      1
    MAXPACKAGES      2
END DIMENSIONS

BEGIN PACKAGES
  GHB-1
  MAW-1
END PACKAGES
BEGIN PERIOD      1
  GHB-1     1 MAW-1     1 FACTOR     1.000000000000E-001 
END PERIOD 

