# CHD: Time-Variant Specified-Head package file created on 6/10/2024 by ModelMuse version 5.2.0.15.
BEGIN OPTIONS
    AUXILIARY IFACE Chem
    BOUNDNAMES
    PRINT_INPUT
    SAVE_FLOWS
END OPTIONS

BEGIN DIMENSIONS
  MAXBOUND     1
END DIMENSIONS

BEGIN PERIOD      1
     1     1     1  1.000000000000E+000      0  0.000000000000E+000  'Object0'  # Data Set 6: Layer Row Column Shead IFACE Chem boundname
END PERIOD 

BEGIN PERIOD      2
     1     1     1  1.000000000000E+000      0  0.000000000000E+000  'Object0'  # Data Set 6: Layer Row Column Shead IFACE Chem boundname
END PERIOD 

