# SFR: MODFLOW-6 Stream Flow Routing package file created on 8/21/2023 by ModelMuse version 5.1.1.35.
BEGIN OPTIONS
    FLOW_PACKAGE_NAME SFR-1
    FLOW_PACKAGE_AUXILIARY_NAME  Chem
    BOUNDNAMES
    PRINT_INPUT
    SAVE_FLOWS
    CONCENTRATION FILEOUT Mf6Model.Chem.sft_conc
    BUDGET FILEOUT Mf6Model.Chem.sft_budget
    BUDGETCSV FILEOUT Mf6Model.Chem.sft_budget.csv
END OPTIONS

BEGIN PACKAGEDATA
# <rno> <strt> <boundname>
# defined by Object14
     1  0.000000000000E+000  Object14
     2  0.000000000000E+000  Object14
     3  0.000000000000E+000  Object14
# defined by Object21
     4  0.000000000000E+000  Object21
     5  0.000000000000E+000  Object21
     6  0.000000000000E+000  Object21
     7  0.000000000000E+000  Object21
     8  0.000000000000E+000  Object21
# defined by Object22
     9  0.000000000000E+000  Object22
    10  0.000000000000E+000  Object22
    11  0.000000000000E+000  Object22
END PACKAGEDATA

BEGIN PERIOD      1
# rno sftsetting (defined by Object14)
     1 STATUS ACTIVE
     1 RAINFALL  0.000000000000E+000 
     1 EVAPORATION  0.000000000000E+000 
     1 RUNOFF  0.000000000000E+000 
     1 INFLOW  0.000000000000E+000 

     2 STATUS ACTIVE
     2 RAINFALL  0.000000000000E+000 
     2 EVAPORATION  0.000000000000E+000 
     2 RUNOFF  0.000000000000E+000 
     2 INFLOW  0.000000000000E+000 

     3 STATUS ACTIVE
     3 RAINFALL  0.000000000000E+000 
     3 EVAPORATION  0.000000000000E+000 
     3 RUNOFF  0.000000000000E+000 
     3 INFLOW  0.000000000000E+000 

# rno sftsetting (defined by Object21)
     4 STATUS ACTIVE
     4 RAINFALL  0.000000000000E+000 
     4 EVAPORATION  0.000000000000E+000 
     4 RUNOFF  0.000000000000E+000 
     4 INFLOW  0.000000000000E+000 

     5 STATUS ACTIVE
     5 RAINFALL  0.000000000000E+000 
     5 EVAPORATION  0.000000000000E+000 
     5 RUNOFF  0.000000000000E+000 
     5 INFLOW  0.000000000000E+000 

     6 STATUS ACTIVE
     6 RAINFALL  0.000000000000E+000 
     6 EVAPORATION  0.000000000000E+000 
     6 RUNOFF  0.000000000000E+000 
     6 INFLOW  0.000000000000E+000 

     7 STATUS ACTIVE
     7 RAINFALL  0.000000000000E+000 
     7 EVAPORATION  0.000000000000E+000 
     7 RUNOFF  0.000000000000E+000 
     7 INFLOW  0.000000000000E+000 

     8 STATUS ACTIVE
     8 RAINFALL  0.000000000000E+000 
     8 EVAPORATION  0.000000000000E+000 
     8 RUNOFF  0.000000000000E+000 
     8 INFLOW  0.000000000000E+000 

# rno sftsetting (defined by Object22)
     9 STATUS ACTIVE
     9 RAINFALL  0.000000000000E+000 
     9 EVAPORATION  0.000000000000E+000 
     9 RUNOFF  0.000000000000E+000 
     9 INFLOW  0.000000000000E+000 

    10 STATUS ACTIVE
    10 RAINFALL  0.000000000000E+000 
    10 EVAPORATION  0.000000000000E+000 
    10 RUNOFF  0.000000000000E+000 
    10 INFLOW  0.000000000000E+000 

    11 STATUS ACTIVE
    11 RAINFALL  0.000000000000E+000 
    11 EVAPORATION  0.000000000000E+000 
    11 RUNOFF  0.000000000000E+000 
    11 INFLOW  0.000000000000E+000 

END PERIOD 

BEGIN PERIOD      2
# rno sftsetting (defined by Object14)
     1 STATUS ACTIVE
     1 RAINFALL  0.000000000000E+000 
     1 EVAPORATION  0.000000000000E+000 
     1 RUNOFF  0.000000000000E+000 
     1 INFLOW  0.000000000000E+000 

     2 STATUS ACTIVE
     2 RAINFALL  0.000000000000E+000 
     2 EVAPORATION  0.000000000000E+000 
     2 RUNOFF  0.000000000000E+000 
     2 INFLOW  0.000000000000E+000 

     3 STATUS ACTIVE
     3 RAINFALL  0.000000000000E+000 
     3 EVAPORATION  0.000000000000E+000 
     3 RUNOFF  0.000000000000E+000 
     3 INFLOW  0.000000000000E+000 

# rno sftsetting (defined by Object21)
     4 STATUS ACTIVE
     4 RAINFALL  0.000000000000E+000 
     4 EVAPORATION  0.000000000000E+000 
     4 RUNOFF  0.000000000000E+000 
     4 INFLOW  0.000000000000E+000 

     5 STATUS ACTIVE
     5 RAINFALL  0.000000000000E+000 
     5 EVAPORATION  0.000000000000E+000 
     5 RUNOFF  0.000000000000E+000 
     5 INFLOW  0.000000000000E+000 

     6 STATUS ACTIVE
     6 RAINFALL  0.000000000000E+000 
     6 EVAPORATION  0.000000000000E+000 
     6 RUNOFF  0.000000000000E+000 
     6 INFLOW  0.000000000000E+000 

     7 STATUS ACTIVE
     7 RAINFALL  0.000000000000E+000 
     7 EVAPORATION  0.000000000000E+000 
     7 RUNOFF  0.000000000000E+000 
     7 INFLOW  0.000000000000E+000 

     8 STATUS ACTIVE
     8 RAINFALL  0.000000000000E+000 
     8 EVAPORATION  0.000000000000E+000 
     8 RUNOFF  0.000000000000E+000 
     8 INFLOW  0.000000000000E+000 

# rno sftsetting (defined by Object22)
     9 STATUS ACTIVE
     9 RAINFALL  0.000000000000E+000 
     9 EVAPORATION  0.000000000000E+000 
     9 RUNOFF  0.000000000000E+000 
     9 INFLOW  0.000000000000E+000 

    10 STATUS ACTIVE
    10 RAINFALL  0.000000000000E+000 
    10 EVAPORATION  0.000000000000E+000 
    10 RUNOFF  0.000000000000E+000 
    10 INFLOW  0.000000000000E+000 

    11 STATUS ACTIVE
    11 RAINFALL  0.000000000000E+000 
    11 EVAPORATION  0.000000000000E+000 
    11 RUNOFF  0.000000000000E+000 
    11 INFLOW  0.000000000000E+000 

END PERIOD 

