# LAK: Lake package for MODFLOW 6 file created on 8/21/2023 by ModelMuse version 5.1.1.35.
BEGIN OPTIONS
    FLOW_PACKAGE_NAME LAK-1
    FLOW_PACKAGE_AUXILIARY_NAME  Chem
    BOUNDNAMES
    PRINT_INPUT
    SAVE_FLOWS
    CONCENTRATION FILEOUT Mf6Model.Chem.lkt_conc
    BUDGET FILEOUT Mf6Model.Chem.lkt_budget
    BUDGETCSV FILEOUT Mf6Model.Chem.lkt_budget.csv
END OPTIONS

BEGIN PACKAGEDATA
# <lakeno> <strt> <boundname>
       1  0.000000000000E+000  'Object8' 
END PACKAGEDATA

BEGIN PERIOD      1
     1 STATUS ACTIVE
     1 RAINFALL  0.000000000000E+000 
     1 EVAPORATION  0.000000000000E+000 
     1 RUNOFF  0.000000000000E+000 
     1 EXT-INFLOW  0.000000000000E+000 

END PERIOD 

