# ADV: GWT Advection Package file created on 1/8/2024 by ModelMuse version 5.1.1.51.
BEGIN OPTIONS
  SCHEME upstream
END OPTIONS

