# CNC: GWT Constant Concentration Package file created on 8/21/2023 by ModelMuse version 5.1.1.35.
BEGIN OPTIONS
    AUXILIARY IFACE
    BOUNDNAMES
    PRINT_INPUT
    SAVE_FLOWS
END OPTIONS

BEGIN DIMENSIONS
  MAXBOUND     1
END DIMENSIONS

BEGIN PERIOD      1
     1     5     8  1.000000000000E+000      0 'Object17'  # Stress periods: Layer Row Column Conc IFACE boundname
END PERIOD 

