# CNC: GWT Constant Concentration Package file created on 7/5/2024 by ModelMuse version 5.3.0.0.
BEGIN OPTIONS
    AUXILIARY IFACE
    BOUNDNAMES
    PRINT_INPUT
    SAVE_FLOWS
END OPTIONS

BEGIN DIMENSIONS
  MAXBOUND     2
END DIMENSIONS

BEGIN PERIOD      1
     1     5     8  1.000000000000E+000      0 'Object17'  # Stress periods: Layer Row Column Conc IFACE boundname
END PERIOD 

BEGIN PERIOD      2
     1     5     8  1.000000000000E+000      0 'Object17'  # Stress periods: Layer Row Column Conc IFACE boundname
END PERIOD 

