# IST: Immobile Storage and Transfer Package file created on 1/30/2025 by ModelMuse version 5.3.1.6.
BEGIN OPTIONS
    SAVE_FLOWS
  SORPTION LINEAR
  ZERO_ORDER_DECAY
END OPTIONS

BEGIN GRIDDATA
  CIM LAYERED IPRN    12
    CONSTANT   0.000000000000E+000  # CIM 1

    CONSTANT   0.000000000000E+000  # CIM 2

    CONSTANT   0.000000000000E+000  # CIM 3

  POROSITY LAYERED IPRN    12
    CONSTANT   2.500000000000E-001  # POROSITY 1

    CONSTANT   2.500000000000E-001  # POROSITY 2

    CONSTANT   2.500000000000E-001  # POROSITY 3

  VOLFRAC LAYERED IPRN    12
    CONSTANT   2.500000000000E-001  # VOLFRAC 1

    CONSTANT   2.500000000000E-001  # VOLFRAC 2

    CONSTANT   2.500000000000E-001  # VOLFRAC 3

  ZETAIM LAYERED IPRN    12
    CONSTANT   1.000000000000E-002  # ZETAIM 1

    CONSTANT   1.000000000000E-002  # ZETAIM 2

    CONSTANT   1.000000000000E-002  # ZETAIM 3

  DECAY LAYERED IPRN    12
    CONSTANT   1.000000000000E-003  # DECAY 1

    CONSTANT   1.000000000000E-003  # DECAY 2

    CONSTANT   1.000000000000E-003  # DECAY 3

  DECAY_SORBED LAYERED IPRN    12
    CONSTANT   1.000000000000E-003  # DECAY_SORBED 1

    CONSTANT   1.000000000000E-003  # DECAY_SORBED 2

    CONSTANT   1.000000000000E-003  # DECAY_SORBED 3

  BULK_DENSITY LAYERED IPRN    12
    CONSTANT   1.700000000000E+000  # BULK_DENSITY 1

    CONSTANT   1.700000000000E+000  # BULK_DENSITY 2

    CONSTANT   1.700000000000E+000  # BULK_DENSITY 3

  DISTCOEF LAYERED IPRN    12
    CONSTANT   1.760000000000E-001  # DISTCOEF 1

    CONSTANT   1.760000000000E-001  # DISTCOEF 2

    CONSTANT   1.760000000000E-001  # DISTCOEF 3

END GRIDDATA

