# MAW: Multi-Aquifer Well package file created on 8/21/2023 by ModelMuse version 5.1.1.35.
BEGIN OPTIONS
    FLOW_PACKAGE_NAME MAW-1
    FLOW_PACKAGE_AUXILIARY_NAME  Chem
    BOUNDNAMES
    PRINT_INPUT
    SAVE_FLOWS
    CONCENTRATION FILEOUT Mf6Model.Chem.mwt_conc
    BUDGET FILEOUT Mf6Model.Chem.mwt_budget
    BUDGETCSV FILEOUT Mf6Model.Chem.mwt_budget.csv
END OPTIONS

BEGIN PACKAGEDATA
# <mawno> <strt> [<boundname>]
     1  0.000000000000E+000  'Object9' 
     2  0.000000000000E+000  'Object20' 
END PACKAGEDATA

BEGIN PERIOD      1
# <wellno> <<mwtsetting>>
     1 STATUS ACTIVE
     1 RATE  1.000000000000E+000 
     2 STATUS ACTIVE
     2 RATE  0.000000000000E+000 
END PERIOD 

BEGIN PERIOD      2
# <wellno> <<mwtsetting>>
     1 STATUS ACTIVE
     1 RATE  1.000000000000E+000 
     2 STATUS ACTIVE
     2 RATE  0.000000000000E+000 
END PERIOD 

