# Transport name file for Chem file created on 8/21/2023 by ModelMuse version 5.1.1.35.
BEGIN OPTIONS
  LIST Mf6Model.Chem.lst
    PRINT_INPUT
    SAVE_FLOWS
END OPTIONS

BEGIN PACKAGES
  DIS6 Mf6Model.Chem.dis
  OC6 Mf6Model.Chem.oc
  SFT6 Mf6Model.Chem.sft
  MWT6 Mf6Model.Chem.mwt
  LKT6 Mf6Model.Chem.lkt
  UZT6 Mf6Model.Chem.uzt
  MVT6 Mf6Model.Chem.mvt
  ADV6 Mf6Model.Chem.adv
  DSP6 Mf6Model.Chem.dsp
  SSM6 Mf6Model.Chem.ssm
  IC6 Mf6Model.Chem.ic
  MST6 Mf6Model.Chem.mst
  IST6 Mf6Model.Chem.1.ist IST-1
  CNC6 Mf6Model.Chem.cnc
  SRC6 Mf6Model.Chem.src
END PACKAGES
