# GHB: General-Head Boundary package file created on 1/8/2024 by ModelMuse version 5.1.1.51.
BEGIN OPTIONS
    AUXILIARY IFACE Chem
    BOUNDNAMES
    PRINT_INPUT
    SAVE_FLOWS
  MOVER
    OBS6 FILEIN Mf6ModelObs.ob_gbob
END OPTIONS

BEGIN DIMENSIONS
  MAXBOUND     1
END DIMENSIONS

BEGIN PERIOD      1
     1     3     1  1.000000000000E+000   1.000000000000E-009      0  1.000000000000E+000  'Object2'  # Data Set 6: Layer Row Column Bhead Cond IFACE Chem boundname
END PERIOD 

