# IMS: Iterative Model Solution file created on 7/10/2020 by ModelMuse version 4.2.0.27.
BEGIN OPTIONS
  PRINT_OPTION ALL
  COMPLEXITY SIMPLE
  CSV_OUTPUT FILEOUT Mf6RechargeOptionTest.Solution.CSV
END OPTIONS

BEGIN NONLINEAR
  OUTER_HCLOSE   1.000000000000E-003 
  OUTER_MAXIMUM     25
  UNDER_RELAXATION NONE
  BACKTRACKING_NUMBER     0
END NONLINEAR

BEGIN LINEAR
  INNER_MAXIMUM    50
  INNER_HCLOSE  1.000000000000E-003 
  INNER_RCLOSE  1.000000000000E-001 
  LINEAR_ACCELERATION CG
END LINEAR

