BEGIN TIMING
  TDIS6 'Mf6RechargeOptionTest.tdis'
END TIMING

BEGIN MODELS
  GWF6 'Mf6RechargeOptionTest.nam' 'MODFLOW'
END MODELS

BEGIN EXCHANGES
END EXCHANGES

BEGIN SOLUTIONGROUP     1
  MXITER     1
  IMS6 'Mf6RechargeOptionTest.ims' 'MODFLOW' 
END SOLUTIONGROUP

