# CHD: Time-Variant Specified-Head package file created on 7/10/2020 by ModelMuse version 4.2.0.27.
BEGIN OPTIONS
    AUXILIARY IFACE
    BOUNDNAMES
    PRINT_INPUT
    SAVE_FLOWS
END OPTIONS

BEGIN DIMENSIONS
  MAXBOUND     2
END DIMENSIONS

BEGIN PERIOD      1
     1     1     1  1.000000000000E+000      0 'Object0'  # Data Set 6: Layer Row Column Shead IFACE boundname
     1    10    10  0.000000000000E+000      0 'Object1'  # Data Set 6: Layer Row Column Shead IFACE boundname
END PERIOD 

