# Name File for MODFLOW created on 12/3/2021 by ModelMuse Version 4.3.0.74
BEGIN OPTIONS
  LIST ..\..\output\output.Mf6RechargeOptionTest\Mf6RechargeOptionTest.lst
  PRINT_INPUT
  SAVE_FLOWS
END OPTIONS

BEGIN PACKAGES
  DIS6         ..\..\model\model.Mf6RechargeOptionTest\Mf6RechargeOptionTest.dis  DIS
  IC6          ..\..\model\model.Mf6RechargeOptionTest\Mf6RechargeOptionTest.ic  IC
  NPF6         ..\..\model\model.Mf6RechargeOptionTest\Mf6RechargeOptionTest.npf  NPF
  OC6          ..\..\model\model.Mf6RechargeOptionTest\Mf6RechargeOptionTest.oc  OC
  CHD6         ..\..\model\model.Mf6RechargeOptionTest\Mf6RechargeOptionTest.chd  CHD-1
END PACKAGES
