# Name File for MODFLOW created on 2/1/2017 by ModelMuse Version 3.8.1.27
LIST             11 ..\..\output\output.mfGridDrawBug\mfGridDrawBug.lst REPLACE
DATA(BINARY)      9 ..\..\output\output.mfGridDrawBug\mfGridDrawBug.cbc REPLACE
DIS              12 ..\..\model\model.mfGridDrawBug\mfGridDrawBug.dis OLD
BAS6             13 ..\..\model\model.mfGridDrawBug\mfGridDrawBug.bas OLD
OC               39 ..\..\model\model.mfGridDrawBug\mfGridDrawBug.oc OLD
DATA             37 ..\..\output\output.mfGridDrawBug\mfGridDrawBug.fhd REPLACE
DATA             38 ..\..\output\output.mfGridDrawBug\mfGridDrawBug.fdn REPLACE
PCG              18 ..\..\model\model.mfGridDrawBug\mfGridDrawBug.pcg OLD
LPF              14 ..\..\model\model.mfGridDrawBug\mfGridDrawBug.lpf OLD
