# Name File for MODFLOW created on 12/14/2015 by ModelMuse
LIST             11 mfGridDrawBug.lst REPLACE
DATA(BINARY)      9 mfGridDrawBug.cbc REPLACE
DIS              12 mfGridDrawBug.dis OLD
BAS6             13 mfGridDrawBug.bas OLD
OC               39 mfGridDrawBug.oc OLD
DATA             37 mfGridDrawBug.fhd REPLACE
DATA             38 mfGridDrawBug.fdn REPLACE
PCG              18 mfGridDrawBug.pcg OLD
LPF              14 mfGridDrawBug.lpf OLD
