# Name File for MODFLOW created on 5/18/2019 by ModelMuse Version 3.10.0.60
LIST             11 MnwSsmScreenTest.lst REPLACE
DATA(BINARY)      9 MnwSsmScreenTest.cbc REPLACE
DIS              12 MnwSsmScreenTest.dis OLD
BAS6             13 MnwSsmScreenTest.bas OLD
OC               39 MnwSsmScreenTest.oc OLD
DATA             37 MnwSsmScreenTest.fhd REPLACE
DATA             38 MnwSsmScreenTest.fdn REPLACE
PCG              18 MnwSsmScreenTest.pcg OLD
LPF              14 MnwSsmScreenTest.lpf OLD
LMT6            135 MnwSsmScreenTest.lmt OLD
CHD              17 MnwSsmScreenTest.chd OLD
MNW2             59 MnwSsmScreenTest.mnw2 OLD
