# Name File for MODFLOW created on 12/14/2015 by ModelMuse
LIST             11 ModflowObjectInterectAreaTest.lst REPLACE
DATA(BINARY)      9 ModflowObjectInterectAreaTest.cbc REPLACE
DIS              12 ModflowObjectInterectAreaTest.dis OLD
BAS6             13 ModflowObjectInterectAreaTest.bas OLD
OC               39 ModflowObjectInterectAreaTest.oc OLD
DATA             37 ModflowObjectInterectAreaTest.fhd REPLACE
DATA             38 ModflowObjectInterectAreaTest.fdn REPLACE
PCG              18 ModflowObjectInterectAreaTest.pcg OLD
LPF              14 ModflowObjectInterectAreaTest.lpf OLD
CHD              17 ModflowObjectInterectAreaTest.chd OLD
WEL              20 ModflowObjectInterectAreaTest.wel OLD
ZONE             15 ModflowObjectInterectAreaTest.zon OLD
MULT             16 ModflowObjectInterectAreaTest.mlt OLD
PVAL             52 ModflowObjectInterectAreaTest.pval OLD
