# Name File for MODFLOW created on 2/1/2017 by ModelMuse Version 3.8.1.27
LIST             11 ..\..\output\output.ModflowObjectInterectAreaTest\ModflowObjectInterectAreaTest.lst REPLACE
DATA(BINARY)      9 ..\..\output\output.ModflowObjectInterectAreaTest\ModflowObjectInterectAreaTest.cbc REPLACE
DIS              12 ..\..\model\model.ModflowObjectInterectAreaTest\ModflowObjectInterectAreaTest.dis OLD
BAS6             13 ..\..\model\model.ModflowObjectInterectAreaTest\ModflowObjectInterectAreaTest.bas OLD
OC               39 ..\..\model\model.ModflowObjectInterectAreaTest\ModflowObjectInterectAreaTest.oc OLD
DATA             37 ..\..\output\output.ModflowObjectInterectAreaTest\ModflowObjectInterectAreaTest.fhd REPLACE
DATA             38 ..\..\output\output.ModflowObjectInterectAreaTest\ModflowObjectInterectAreaTest.fdn REPLACE
PCG              18 ..\..\model\model.ModflowObjectInterectAreaTest\ModflowObjectInterectAreaTest.pcg OLD
LPF              14 ..\..\model\model.ModflowObjectInterectAreaTest\ModflowObjectInterectAreaTest.lpf OLD
CHD              17 ..\..\model\model.ModflowObjectInterectAreaTest\ModflowObjectInterectAreaTest.chd OLD
WEL              20 ..\..\model\model.ModflowObjectInterectAreaTest\ModflowObjectInterectAreaTest.wel OLD
ZONE             15 ..\..\model\model.ModflowObjectInterectAreaTest\ModflowObjectInterectAreaTest.zon OLD
MULT             16 ..\..\model\model.ModflowObjectInterectAreaTest\ModflowObjectInterectAreaTest.mlt OLD
PVAL             52 ..\..\model\model.ModflowObjectInterectAreaTest\ModflowObjectInterectAreaTest.pval OLD
