# Name File for MODFLOW created on 2/1/2017 by ModelMuse Version 3.8.1.27
LIST             11 ..\..\output\output.ModflowFrontSideTest\ModflowFrontSideTest.lst REPLACE
DATA(BINARY)      9 ..\..\output\output.ModflowFrontSideTest\ModflowFrontSideTest.cbc REPLACE
DIS              12 ..\..\model\model.ModflowFrontSideTest\ModflowFrontSideTest.dis OLD
BAS6             13 ..\..\model\model.ModflowFrontSideTest\ModflowFrontSideTest.bas OLD
OC               39 ..\..\model\model.ModflowFrontSideTest\ModflowFrontSideTest.oc OLD
DATA             37 ..\..\output\output.ModflowFrontSideTest\ModflowFrontSideTest.fhd REPLACE
DATA             38 ..\..\output\output.ModflowFrontSideTest\ModflowFrontSideTest.fdn REPLACE
PCG              18 ..\..\model\model.ModflowFrontSideTest\ModflowFrontSideTest.pcg OLD
LPF              14 ..\..\model\model.ModflowFrontSideTest\ModflowFrontSideTest.lpf OLD
CHD              17 ..\..\model\model.ModflowFrontSideTest\ModflowFrontSideTest.chd OLD
