# Name File for MODFLOW created on 12/14/2015 by ModelMuse
LIST             11 ModflowFrontSideTest.lst REPLACE
DATA(BINARY)      9 ModflowFrontSideTest.cbc REPLACE
DIS              12 ModflowFrontSideTest.dis OLD
BAS6             13 ModflowFrontSideTest.bas OLD
OC               39 ModflowFrontSideTest.oc OLD
DATA             37 ModflowFrontSideTest.fhd REPLACE
DATA             38 ModflowFrontSideTest.fdn REPLACE
PCG              18 ModflowFrontSideTest.pcg OLD
LPF              14 ModflowFrontSideTest.lpf OLD
CHD              17 ModflowFrontSideTest.chd OLD
