# Name File for MODFLOW created on 12/14/2015 by ModelMuse
LIST             11 Modpathtimetest.lst REPLACE
DATA(BINARY)      9 Modpathtimetest.cbc REPLACE
DIS              12 Modpathtimetest.dis OLD
BAS6             13 Modpathtimetest.bas OLD
OC               39 Modpathtimetest.oc OLD
DATA             37 Modpathtimetest.fhd REPLACE
DATA             38 Modpathtimetest.fdn REPLACE
PCG              18 Modpathtimetest.pcg OLD
LPF              14 Modpathtimetest.lpf OLD
CHD              17 Modpathtimetest.chd OLD
