# Name File for MODFLOW created on 2/1/2017 by ModelMuse Version 3.8.1.27
LIST             11 ..\..\output\output.Modpathtimetest\Modpathtimetest.lst REPLACE
DATA(BINARY)      9 ..\..\output\output.Modpathtimetest\Modpathtimetest.cbc REPLACE
DIS              12 ..\..\model\model.Modpathtimetest\Modpathtimetest.dis OLD
BAS6             13 ..\..\model\model.Modpathtimetest\Modpathtimetest.bas OLD
OC               39 ..\..\model\model.Modpathtimetest\Modpathtimetest.oc OLD
DATA             37 ..\..\output\output.Modpathtimetest\Modpathtimetest.fhd REPLACE
DATA             38 ..\..\output\output.Modpathtimetest\Modpathtimetest.fdn REPLACE
PCG              18 ..\..\model\model.Modpathtimetest\Modpathtimetest.pcg OLD
LPF              14 ..\..\model\model.Modpathtimetest\Modpathtimetest.lpf OLD
CHD              17 ..\..\model\model.Modpathtimetest\Modpathtimetest.chd OLD
