# Name File for MODFLOW created on 12/14/2015 by ModelMuse
LIST             11 MP6_Test4.lst REPLACE
DATA(BINARY)      9 MP6_Test4.cbc REPLACE
DIS              12 MP6_Test4.dis OLD
BAS6             13 MP6_Test4.bas OLD
OC               39 MP6_Test4.oc OLD
DATA(BINARY)     37 MP6_Test4.bhd REPLACE
DATA             38 MP6_Test4.fdn REPLACE
PCG              18 MP6_Test4.pcg OLD
LPF              14 MP6_Test4.lpf OLD
WEL              20 MP6_Test4.wel OLD
RIV              21 MP6_Test4.riv OLD
RCH              24 MP6_Test4.rch OLD
