# MODPATH Starting Locations file file created on 12/12/2015 by ModelMuse version 3.6.3.5.
     2 # Data Set 1: InputStyle
     2 # Data Set 6: GroupCount
PG01 # Data Set 7: GroupName
    68  0.000000000000E+000      1 # Data Set 8: LocationCount ReleaseStartTime ReleaseOption
     1     1     7     4 0.25 0.75 1 0 0 0 PG01-01 # Data Set 12: Grid Layer Row Column LocalX LocalY LocalZ Label
     1     1     7     4 0.25 0.25 1 0 0 0 PG01-02 # Data Set 12: Grid Layer Row Column LocalX LocalY LocalZ Label
     1     1     7     4 0.75 0.75 1 0 0 0 PG01-03 # Data Set 12: Grid Layer Row Column LocalX LocalY LocalZ Label
     1     1     7     4 0.75 0.25 1 0 0 0 PG01-04 # Data Set 12: Grid Layer Row Column LocalX LocalY LocalZ Label
     1     1    11     2 0.25 0.75 1 0 0 0 PG01-05 # Data Set 12: Grid Layer Row Column LocalX LocalY LocalZ Label
     1     1    11     2 0.25 0.25 1 0 0 0 PG01-06 # Data Set 12: Grid Layer Row Column LocalX LocalY LocalZ Label
     1     1    11     2 0.75 0.75 1 0 0 0 PG01-07 # Data Set 12: Grid Layer Row Column LocalX LocalY LocalZ Label
     1     1    11     2 0.75 0.25 1 0 0 0 PG01-08 # Data Set 12: Grid Layer Row Column LocalX LocalY LocalZ Label
     1     1    10     2 0.25 0.75 1 0 0 0 PG01-09 # Data Set 12: Grid Layer Row Column LocalX LocalY LocalZ Label
     1     1    10     2 0.25 0.25 1 0 0 0 PG01-10 # Data Set 12: Grid Layer Row Column LocalX LocalY LocalZ Label
     1     1    10     2 0.75 0.75 1 0 0 0 PG01-11 # Data Set 12: Grid Layer Row Column LocalX LocalY LocalZ Label
     1     1    10     2 0.75 0.25 1 0 0 0 PG01-12 # Data Set 12: Grid Layer Row Column LocalX LocalY LocalZ Label
     1     1     9     2 0.25 0.75 1 0 0 0 PG01-13 # Data Set 12: Grid Layer Row Column LocalX LocalY LocalZ Label
     1     1     9     2 0.25 0.25 1 0 0 0 PG01-14 # Data Set 12: Grid Layer Row Column LocalX LocalY LocalZ Label
     1     1     9     2 0.75 0.75 1 0 0 0 PG01-15 # Data Set 12: Grid Layer Row Column LocalX LocalY LocalZ Label
     1     1     9     2 0.75 0.25 1 0 0 0 PG01-16 # Data Set 12: Grid Layer Row Column LocalX LocalY LocalZ Label
     1     1     8     2 0.25 0.75 1 0 0 0 PG01-17 # Data Set 12: Grid Layer Row Column LocalX LocalY LocalZ Label
     1     1     8     2 0.25 0.25 1 0 0 0 PG01-18 # Data Set 12: Grid Layer Row Column LocalX LocalY LocalZ Label
     1     1     8     2 0.75 0.75 1 0 0 0 PG01-19 # Data Set 12: Grid Layer Row Column LocalX LocalY LocalZ Label
     1     1     8     2 0.75 0.25 1 0 0 0 PG01-20 # Data Set 12: Grid Layer Row Column LocalX LocalY LocalZ Label
     1     1     7     2 0.25 0.75 1 0 0 0 PG01-21 # Data Set 12: Grid Layer Row Column LocalX LocalY LocalZ Label
     1     1     7     2 0.25 0.25 1 0 0 0 PG01-22 # Data Set 12: Grid Layer Row Column LocalX LocalY LocalZ Label
     1     1     7     2 0.75 0.75 1 0 0 0 PG01-23 # Data Set 12: Grid Layer Row Column LocalX LocalY LocalZ Label
     1     1     7     2 0.75 0.25 1 0 0 0 PG01-24 # Data Set 12: Grid Layer Row Column LocalX LocalY LocalZ Label
     1     1     6     2 0.25 0.75 1 0 0 0 PG01-25 # Data Set 12: Grid Layer Row Column LocalX LocalY LocalZ Label
     1     1     6     2 0.25 0.25 1 0 0 0 PG01-26 # Data Set 12: Grid Layer Row Column LocalX LocalY LocalZ Label
     1     1     6     2 0.75 0.75 1 0 0 0 PG01-27 # Data Set 12: Grid Layer Row Column LocalX LocalY LocalZ Label
     1     1     6     2 0.75 0.25 1 0 0 0 PG01-28 # Data Set 12: Grid Layer Row Column LocalX LocalY LocalZ Label
     1     1     5     2 0.25 0.75 1 0 0 0 PG01-29 # Data Set 12: Grid Layer Row Column LocalX LocalY LocalZ Label
     1     1     5     2 0.25 0.25 1 0 0 0 PG01-30 # Data Set 12: Grid Layer Row Column LocalX LocalY LocalZ Label
     1     1     5     2 0.75 0.75 1 0 0 0 PG01-31 # Data Set 12: Grid Layer Row Column LocalX LocalY LocalZ Label
     1     1     5     2 0.75 0.25 1 0 0 0 PG01-32 # Data Set 12: Grid Layer Row Column LocalX LocalY LocalZ Label
     1     1    11     6 0.25 0.75 1 0 0 0 PG01-33 # Data Set 12: Grid Layer Row Column LocalX LocalY LocalZ Label
     1     1    11     6 0.25 0.25 1 0 0 0 PG01-34 # Data Set 12: Grid Layer Row Column LocalX LocalY LocalZ Label
     1     1    11     6 0.75 0.75 1 0 0 0 PG01-35 # Data Set 12: Grid Layer Row Column LocalX LocalY LocalZ Label
     1     1    11     6 0.75 0.25 1 0 0 0 PG01-36 # Data Set 12: Grid Layer Row Column LocalX LocalY LocalZ Label
     1     1    10     6 0.25 0.75 1 0 0 0 PG01-37 # Data Set 12: Grid Layer Row Column LocalX LocalY LocalZ Label
     1     1    10     6 0.25 0.25 1 0 0 0 PG01-38 # Data Set 12: Grid Layer Row Column LocalX LocalY LocalZ Label
     1     1    10     6 0.75 0.75 1 0 0 0 PG01-39 # Data Set 12: Grid Layer Row Column LocalX LocalY LocalZ Label
     1     1    10     6 0.75 0.25 1 0 0 0 PG01-40 # Data Set 12: Grid Layer Row Column LocalX LocalY LocalZ Label
     1     1     9     6 0.25 0.75 1 0 0 0 PG01-41 # Data Set 12: Grid Layer Row Column LocalX LocalY LocalZ Label
     1     1     9     6 0.25 0.25 1 0 0 0 PG01-42 # Data Set 12: Grid Layer Row Column LocalX LocalY LocalZ Label
     1     1     9     6 0.75 0.75 1 0 0 0 PG01-43 # Data Set 12: Grid Layer Row Column LocalX LocalY LocalZ Label
     1     1     9     6 0.75 0.25 1 0 0 0 PG01-44 # Data Set 12: Grid Layer Row Column LocalX LocalY LocalZ Label
     1     1     8     6 0.25 0.75 1 0 0 0 PG01-45 # Data Set 12: Grid Layer Row Column LocalX LocalY LocalZ Label
     1     1     8     6 0.25 0.25 1 0 0 0 PG01-46 # Data Set 12: Grid Layer Row Column LocalX LocalY LocalZ Label
     1     1     8     6 0.75 0.75 1 0 0 0 PG01-47 # Data Set 12: Grid Layer Row Column LocalX LocalY LocalZ Label
     1     1     8     6 0.75 0.25 1 0 0 0 PG01-48 # Data Set 12: Grid Layer Row Column LocalX LocalY LocalZ Label
     1     1     7     6 0.25 0.75 1 0 0 0 PG01-49 # Data Set 12: Grid Layer Row Column LocalX LocalY LocalZ Label
     1     1     7     6 0.25 0.25 1 0 0 0 PG01-50 # Data Set 12: Grid Layer Row Column LocalX LocalY LocalZ Label
     1     1     7     6 0.75 0.75 1 0 0 0 PG01-51 # Data Set 12: Grid Layer Row Column LocalX LocalY LocalZ Label
     1     1     7     6 0.75 0.25 1 0 0 0 PG01-52 # Data Set 12: Grid Layer Row Column LocalX LocalY LocalZ Label
     1     1     6     6 0.25 0.75 1 0 0 0 PG01-53 # Data Set 12: Grid Layer Row Column LocalX LocalY LocalZ Label
     1     1     6     6 0.25 0.25 1 0 0 0 PG01-54 # Data Set 12: Grid Layer Row Column LocalX LocalY LocalZ Label
     1     1     6     6 0.75 0.75 1 0 0 0 PG01-55 # Data Set 12: Grid Layer Row Column LocalX LocalY LocalZ Label
     1     1     6     6 0.75 0.25 1 0 0 0 PG01-56 # Data Set 12: Grid Layer Row Column LocalX LocalY LocalZ Label
     1     1     5     6 0.25 0.75 1 0 0 0 PG01-57 # Data Set 12: Grid Layer Row Column LocalX LocalY LocalZ Label
     1     1     5     6 0.25 0.25 1 0 0 0 PG01-58 # Data Set 12: Grid Layer Row Column LocalX LocalY LocalZ Label
     1     1     5     6 0.75 0.75 1 0 0 0 PG01-59 # Data Set 12: Grid Layer Row Column LocalX LocalY LocalZ Label
     1     1     5     6 0.75 0.25 1 0 0 0 PG01-60 # Data Set 12: Grid Layer Row Column LocalX LocalY LocalZ Label
     1     1     6     3 0.25 0.75 1 0 0 0 PG01-61 # Data Set 12: Grid Layer Row Column LocalX LocalY LocalZ Label
     1     1     6     3 0.25 0.25 1 0 0 0 PG01-62 # Data Set 12: Grid Layer Row Column LocalX LocalY LocalZ Label
     1     1     6     3 0.75 0.75 1 0 0 0 PG01-63 # Data Set 12: Grid Layer Row Column LocalX LocalY LocalZ Label
     1     1     6     3 0.75 0.25 1 0 0 0 PG01-64 # Data Set 12: Grid Layer Row Column LocalX LocalY LocalZ Label
     1     1     6     5 0.25 0.75 1 0 0 0 PG01-65 # Data Set 12: Grid Layer Row Column LocalX LocalY LocalZ Label
     1     1     6     5 0.25 0.25 1 0 0 0 PG01-66 # Data Set 12: Grid Layer Row Column LocalX LocalY LocalZ Label
     1     1     6     5 0.75 0.75 1 0 0 0 PG01-67 # Data Set 12: Grid Layer Row Column LocalX LocalY LocalZ Label
     1     1     6     5 0.75 0.25 1 0 0 0 PG01-68 # Data Set 12: Grid Layer Row Column LocalX LocalY LocalZ Label
PG02 # Data Set 7: GroupName
    52  0.000000000000E+000      3 # Data Set 8: LocationCount ReleaseStartTime ReleaseOption
     4 # Data Set 10: ReleaseEventCount
  1.000000000000E+002   2.500000000000E+002   5.000000000000E+002   8.500000000000E+002 Data Set 11: MultipleReleaseTimes
     1     1    16    11 0.25 0.75 1 0 0 0 PG02-01 # Data Set 12: Grid Layer Row Column LocalX LocalY LocalZ Label
     1     1    16    11 0.25 0.25 1 0 0 0 PG02-02 # Data Set 12: Grid Layer Row Column LocalX LocalY LocalZ Label
     1     1    16    11 0.75 0.75 1 0 0 0 PG02-03 # Data Set 12: Grid Layer Row Column LocalX LocalY LocalZ Label
     1     1    16    11 0.75 0.25 1 0 0 0 PG02-04 # Data Set 12: Grid Layer Row Column LocalX LocalY LocalZ Label
     1     1    17    11 0.25 0.75 1 0 0 0 PG02-05 # Data Set 12: Grid Layer Row Column LocalX LocalY LocalZ Label
     1     1    17    11 0.25 0.25 1 0 0 0 PG02-06 # Data Set 12: Grid Layer Row Column LocalX LocalY LocalZ Label
     1     1    17    11 0.75 0.75 1 0 0 0 PG02-07 # Data Set 12: Grid Layer Row Column LocalX LocalY LocalZ Label
     1     1    17    11 0.75 0.25 1 0 0 0 PG02-08 # Data Set 12: Grid Layer Row Column LocalX LocalY LocalZ Label
     1     1    18    11 0.25 0.75 1 0 0 0 PG02-09 # Data Set 12: Grid Layer Row Column LocalX LocalY LocalZ Label
     1     1    18    11 0.25 0.25 1 0 0 0 PG02-10 # Data Set 12: Grid Layer Row Column LocalX LocalY LocalZ Label
     1     1    18    11 0.75 0.75 1 0 0 0 PG02-11 # Data Set 12: Grid Layer Row Column LocalX LocalY LocalZ Label
     1     1    18    11 0.75 0.25 1 0 0 0 PG02-12 # Data Set 12: Grid Layer Row Column LocalX LocalY LocalZ Label
     1     1    19    11 0.25 0.75 1 0 0 0 PG02-13 # Data Set 12: Grid Layer Row Column LocalX LocalY LocalZ Label
     1     1    19    11 0.25 0.25 1 0 0 0 PG02-14 # Data Set 12: Grid Layer Row Column LocalX LocalY LocalZ Label
     1     1    19    11 0.75 0.75 1 0 0 0 PG02-15 # Data Set 12: Grid Layer Row Column LocalX LocalY LocalZ Label
     1     1    19    11 0.75 0.25 1 0 0 0 PG02-16 # Data Set 12: Grid Layer Row Column LocalX LocalY LocalZ Label
     1     1    20    11 0.25 0.75 1 0 0 0 PG02-17 # Data Set 12: Grid Layer Row Column LocalX LocalY LocalZ Label
     1     1    20    11 0.25 0.25 1 0 0 0 PG02-18 # Data Set 12: Grid Layer Row Column LocalX LocalY LocalZ Label
     1     1    20    11 0.75 0.75 1 0 0 0 PG02-19 # Data Set 12: Grid Layer Row Column LocalX LocalY LocalZ Label
     1     1    20    11 0.75 0.25 1 0 0 0 PG02-20 # Data Set 12: Grid Layer Row Column LocalX LocalY LocalZ Label
     1     1    21    11 0.25 0.75 1 0 0 0 PG02-21 # Data Set 12: Grid Layer Row Column LocalX LocalY LocalZ Label
     1     1    21    11 0.25 0.25 1 0 0 0 PG02-22 # Data Set 12: Grid Layer Row Column LocalX LocalY LocalZ Label
     1     1    21    11 0.75 0.75 1 0 0 0 PG02-23 # Data Set 12: Grid Layer Row Column LocalX LocalY LocalZ Label
     1     1    21    11 0.75 0.25 1 0 0 0 PG02-24 # Data Set 12: Grid Layer Row Column LocalX LocalY LocalZ Label
     1     1    22    11 0.25 0.75 1 0 0 0 PG02-25 # Data Set 12: Grid Layer Row Column LocalX LocalY LocalZ Label
     1     1    22    11 0.25 0.25 1 0 0 0 PG02-26 # Data Set 12: Grid Layer Row Column LocalX LocalY LocalZ Label
     1     1    22    11 0.75 0.75 1 0 0 0 PG02-27 # Data Set 12: Grid Layer Row Column LocalX LocalY LocalZ Label
     1     1    22    11 0.75 0.25 1 0 0 0 PG02-28 # Data Set 12: Grid Layer Row Column LocalX LocalY LocalZ Label
     1     1    16    12 0.25 0.75 1 0 0 0 PG02-29 # Data Set 12: Grid Layer Row Column LocalX LocalY LocalZ Label
     1     1    16    12 0.25 0.25 1 0 0 0 PG02-30 # Data Set 12: Grid Layer Row Column LocalX LocalY LocalZ Label
     1     1    16    12 0.75 0.75 1 0 0 0 PG02-31 # Data Set 12: Grid Layer Row Column LocalX LocalY LocalZ Label
     1     1    16    12 0.75 0.25 1 0 0 0 PG02-32 # Data Set 12: Grid Layer Row Column LocalX LocalY LocalZ Label
     1     1    16    13 0.25 0.75 1 0 0 0 PG02-33 # Data Set 12: Grid Layer Row Column LocalX LocalY LocalZ Label
     1     1    16    13 0.25 0.25 1 0 0 0 PG02-34 # Data Set 12: Grid Layer Row Column LocalX LocalY LocalZ Label
     1     1    16    13 0.75 0.75 1 0 0 0 PG02-35 # Data Set 12: Grid Layer Row Column LocalX LocalY LocalZ Label
     1     1    16    13 0.75 0.25 1 0 0 0 PG02-36 # Data Set 12: Grid Layer Row Column LocalX LocalY LocalZ Label
     1     1    19    12 0.25 0.75 1 0 0 0 PG02-37 # Data Set 12: Grid Layer Row Column LocalX LocalY LocalZ Label
     1     1    19    12 0.25 0.25 1 0 0 0 PG02-38 # Data Set 12: Grid Layer Row Column LocalX LocalY LocalZ Label
     1     1    19    12 0.75 0.75 1 0 0 0 PG02-39 # Data Set 12: Grid Layer Row Column LocalX LocalY LocalZ Label
     1     1    19    12 0.75 0.25 1 0 0 0 PG02-40 # Data Set 12: Grid Layer Row Column LocalX LocalY LocalZ Label
     1     1    19    13 0.25 0.75 1 0 0 0 PG02-41 # Data Set 12: Grid Layer Row Column LocalX LocalY LocalZ Label
     1     1    19    13 0.25 0.25 1 0 0 0 PG02-42 # Data Set 12: Grid Layer Row Column LocalX LocalY LocalZ Label
     1     1    19    13 0.75 0.75 1 0 0 0 PG02-43 # Data Set 12: Grid Layer Row Column LocalX LocalY LocalZ Label
     1     1    19    13 0.75 0.25 1 0 0 0 PG02-44 # Data Set 12: Grid Layer Row Column LocalX LocalY LocalZ Label
     1     1    17    14 0.25 0.75 1 0 0 0 PG02-45 # Data Set 12: Grid Layer Row Column LocalX LocalY LocalZ Label
     1     1    17    14 0.25 0.25 1 0 0 0 PG02-46 # Data Set 12: Grid Layer Row Column LocalX LocalY LocalZ Label
     1     1    17    14 0.75 0.75 1 0 0 0 PG02-47 # Data Set 12: Grid Layer Row Column LocalX LocalY LocalZ Label
     1     1    17    14 0.75 0.25 1 0 0 0 PG02-48 # Data Set 12: Grid Layer Row Column LocalX LocalY LocalZ Label
     1     1    18    14 0.25 0.75 1 0 0 0 PG02-49 # Data Set 12: Grid Layer Row Column LocalX LocalY LocalZ Label
     1     1    18    14 0.25 0.25 1 0 0 0 PG02-50 # Data Set 12: Grid Layer Row Column LocalX LocalY LocalZ Label
     1     1    18    14 0.75 0.75 1 0 0 0 PG02-51 # Data Set 12: Grid Layer Row Column LocalX LocalY LocalZ Label
     1     1    18    14 0.75 0.25 1 0 0 0 PG02-52 # Data Set 12: Grid Layer Row Column LocalX LocalY LocalZ Label
