# Name File for MODFLOW created on 2/1/2017 by ModelMuse Version 3.8.1.27
LIST             11 ..\..\output\output.MP6_Test1\MP6_Test1.lst REPLACE
DATA(BINARY)      9 ..\..\output\output.MP6_Test1\MP6_Test1.cbc REPLACE
DIS              12 ..\..\model\model.MP6_Test1\MP6_Test1.dis OLD
BAS6             13 ..\..\model\model.MP6_Test1\MP6_Test1.bas OLD
OC               39 ..\..\model\model.MP6_Test1\MP6_Test1.oc OLD
DATA(BINARY)     37 ..\..\output\output.MP6_Test1\MP6_Test1.bhd REPLACE
DATA             38 ..\..\output\output.MP6_Test1\MP6_Test1.fdn REPLACE
PCG              18 ..\..\model\model.MP6_Test1\MP6_Test1.pcg OLD
LPF              14 ..\..\model\model.MP6_Test1\MP6_Test1.lpf OLD
WEL              20 ..\..\model\model.MP6_Test1\MP6_Test1.wel OLD
RIV              21 ..\..\model\model.MP6_Test1\MP6_Test1.riv OLD
RCH              24 ..\..\model\model.MP6_Test1\MP6_Test1.rch OLD
