# Name File for MODFLOW created on 2/1/2017 by ModelMuse Version 3.8.1.27
LIST             11 ..\..\output\output.MP6_Test9\MP6_Test9.lst REPLACE
DATA(BINARY)      9 ..\..\output\output.MP6_Test9\MP6_Test9.cbc REPLACE
DIS              12 ..\..\model\model.MP6_Test9\MP6_Test9.dis OLD
BAS6             13 ..\..\model\model.MP6_Test9\MP6_Test9.bas OLD
OC               39 ..\..\model\model.MP6_Test9\MP6_Test9.oc OLD
DATA(BINARY)     37 ..\..\output\output.MP6_Test9\MP6_Test9.bhd REPLACE
DATA             38 ..\..\output\output.MP6_Test9\MP6_Test9.fdn REPLACE
PCG              18 ..\..\model\model.MP6_Test9\MP6_Test9.pcg OLD
LPF              14 ..\..\model\model.MP6_Test9\MP6_Test9.lpf OLD
WEL              20 ..\..\model\model.MP6_Test9\MP6_Test9.wel OLD
RIV              21 ..\..\model\model.MP6_Test9\MP6_Test9.riv OLD
RCH              24 ..\..\model\model.MP6_Test9\MP6_Test9.rch OLD
