# MODPATH Starting Locations file file created on 12/12/2015 by ModelMuse version 3.6.3.5.
     2 # Data Set 1: InputStyle
     1 # Data Set 6: GroupCount
ModpathParticles # Data Set 7: GroupName
   225  0.000000000000E+000      1 # Data Set 8: LocationCount ReleaseStartTime ReleaseOption
     1     1     3     5 0.1 0.9 1 0 0 0 ModpathParticles-001 # Data Set 12: Grid Layer Row Column LocalX LocalY LocalZ Label
     1     1     3     5 0.1 0.7 1 0 0 0 ModpathParticles-002 # Data Set 12: Grid Layer Row Column LocalX LocalY LocalZ Label
     1     1     3     5 0.1 0.5 1 0 0 0 ModpathParticles-003 # Data Set 12: Grid Layer Row Column LocalX LocalY LocalZ Label
     1     1     3     5 0.1 0.3 1 0 0 0 ModpathParticles-004 # Data Set 12: Grid Layer Row Column LocalX LocalY LocalZ Label
     1     1     3     5 0.1 0.1 1 0 0 0 ModpathParticles-005 # Data Set 12: Grid Layer Row Column LocalX LocalY LocalZ Label
     1     1     3     5 0.3 0.9 1 0 0 0 ModpathParticles-006 # Data Set 12: Grid Layer Row Column LocalX LocalY LocalZ Label
     1     1     3     5 0.3 0.7 1 0 0 0 ModpathParticles-007 # Data Set 12: Grid Layer Row Column LocalX LocalY LocalZ Label
     1     1     3     5 0.3 0.5 1 0 0 0 ModpathParticles-008 # Data Set 12: Grid Layer Row Column LocalX LocalY LocalZ Label
     1     1     3     5 0.3 0.3 1 0 0 0 ModpathParticles-009 # Data Set 12: Grid Layer Row Column LocalX LocalY LocalZ Label
     1     1     3     5 0.3 0.1 1 0 0 0 ModpathParticles-010 # Data Set 12: Grid Layer Row Column LocalX LocalY LocalZ Label
     1     1     3     5 0.5 0.9 1 0 0 0 ModpathParticles-011 # Data Set 12: Grid Layer Row Column LocalX LocalY LocalZ Label
     1     1     3     5 0.5 0.7 1 0 0 0 ModpathParticles-012 # Data Set 12: Grid Layer Row Column LocalX LocalY LocalZ Label
     1     1     3     5 0.5 0.5 1 0 0 0 ModpathParticles-013 # Data Set 12: Grid Layer Row Column LocalX LocalY LocalZ Label
     1     1     3     5 0.5 0.3 1 0 0 0 ModpathParticles-014 # Data Set 12: Grid Layer Row Column LocalX LocalY LocalZ Label
     1     1     3     5 0.5 0.1 1 0 0 0 ModpathParticles-015 # Data Set 12: Grid Layer Row Column LocalX LocalY LocalZ Label
     1     1     3     5 0.7 0.9 1 0 0 0 ModpathParticles-016 # Data Set 12: Grid Layer Row Column LocalX LocalY LocalZ Label
     1     1     3     5 0.7 0.7 1 0 0 0 ModpathParticles-017 # Data Set 12: Grid Layer Row Column LocalX LocalY LocalZ Label
     1     1     3     5 0.7 0.5 1 0 0 0 ModpathParticles-018 # Data Set 12: Grid Layer Row Column LocalX LocalY LocalZ Label
     1     1     3     5 0.7 0.3 1 0 0 0 ModpathParticles-019 # Data Set 12: Grid Layer Row Column LocalX LocalY LocalZ Label
     1     1     3     5 0.7 0.1 1 0 0 0 ModpathParticles-020 # Data Set 12: Grid Layer Row Column LocalX LocalY LocalZ Label
     1     1     3     5 0.9 0.9 1 0 0 0 ModpathParticles-021 # Data Set 12: Grid Layer Row Column LocalX LocalY LocalZ Label
     1     1     3     5 0.9 0.7 1 0 0 0 ModpathParticles-022 # Data Set 12: Grid Layer Row Column LocalX LocalY LocalZ Label
     1     1     3     5 0.9 0.5 1 0 0 0 ModpathParticles-023 # Data Set 12: Grid Layer Row Column LocalX LocalY LocalZ Label
     1     1     3     5 0.9 0.3 1 0 0 0 ModpathParticles-024 # Data Set 12: Grid Layer Row Column LocalX LocalY LocalZ Label
     1     1     3     5 0.9 0.1 1 0 0 0 ModpathParticles-025 # Data Set 12: Grid Layer Row Column LocalX LocalY LocalZ Label
     1     1     4     5 0.1 0.9 1 0 0 0 ModpathParticles-026 # Data Set 12: Grid Layer Row Column LocalX LocalY LocalZ Label
     1     1     4     5 0.1 0.7 1 0 0 0 ModpathParticles-027 # Data Set 12: Grid Layer Row Column LocalX LocalY LocalZ Label
     1     1     4     5 0.1 0.5 1 0 0 0 ModpathParticles-028 # Data Set 12: Grid Layer Row Column LocalX LocalY LocalZ Label
     1     1     4     5 0.1 0.3 1 0 0 0 ModpathParticles-029 # Data Set 12: Grid Layer Row Column LocalX LocalY LocalZ Label
     1     1     4     5 0.1 0.1 1 0 0 0 ModpathParticles-030 # Data Set 12: Grid Layer Row Column LocalX LocalY LocalZ Label
     1     1     4     5 0.3 0.9 1 0 0 0 ModpathParticles-031 # Data Set 12: Grid Layer Row Column LocalX LocalY LocalZ Label
     1     1     4     5 0.3 0.7 1 0 0 0 ModpathParticles-032 # Data Set 12: Grid Layer Row Column LocalX LocalY LocalZ Label
     1     1     4     5 0.3 0.5 1 0 0 0 ModpathParticles-033 # Data Set 12: Grid Layer Row Column LocalX LocalY LocalZ Label
     1     1     4     5 0.3 0.3 1 0 0 0 ModpathParticles-034 # Data Set 12: Grid Layer Row Column LocalX LocalY LocalZ Label
     1     1     4     5 0.3 0.1 1 0 0 0 ModpathParticles-035 # Data Set 12: Grid Layer Row Column LocalX LocalY LocalZ Label
     1     1     4     5 0.5 0.9 1 0 0 0 ModpathParticles-036 # Data Set 12: Grid Layer Row Column LocalX LocalY LocalZ Label
     1     1     4     5 0.5 0.7 1 0 0 0 ModpathParticles-037 # Data Set 12: Grid Layer Row Column LocalX LocalY LocalZ Label
     1     1     4     5 0.5 0.5 1 0 0 0 ModpathParticles-038 # Data Set 12: Grid Layer Row Column LocalX LocalY LocalZ Label
     1     1     4     5 0.5 0.3 1 0 0 0 ModpathParticles-039 # Data Set 12: Grid Layer Row Column LocalX LocalY LocalZ Label
     1     1     4     5 0.5 0.1 1 0 0 0 ModpathParticles-040 # Data Set 12: Grid Layer Row Column LocalX LocalY LocalZ Label
     1     1     4     5 0.7 0.9 1 0 0 0 ModpathParticles-041 # Data Set 12: Grid Layer Row Column LocalX LocalY LocalZ Label
     1     1     4     5 0.7 0.7 1 0 0 0 ModpathParticles-042 # Data Set 12: Grid Layer Row Column LocalX LocalY LocalZ Label
     1     1     4     5 0.7 0.5 1 0 0 0 ModpathParticles-043 # Data Set 12: Grid Layer Row Column LocalX LocalY LocalZ Label
     1     1     4     5 0.7 0.3 1 0 0 0 ModpathParticles-044 # Data Set 12: Grid Layer Row Column LocalX LocalY LocalZ Label
     1     1     4     5 0.7 0.1 1 0 0 0 ModpathParticles-045 # Data Set 12: Grid Layer Row Column LocalX LocalY LocalZ Label
     1     1     4     5 0.9 0.9 1 0 0 0 ModpathParticles-046 # Data Set 12: Grid Layer Row Column LocalX LocalY LocalZ Label
     1     1     4     5 0.9 0.7 1 0 0 0 ModpathParticles-047 # Data Set 12: Grid Layer Row Column LocalX LocalY LocalZ Label
     1     1     4     5 0.9 0.5 1 0 0 0 ModpathParticles-048 # Data Set 12: Grid Layer Row Column LocalX LocalY LocalZ Label
     1     1     4     5 0.9 0.3 1 0 0 0 ModpathParticles-049 # Data Set 12: Grid Layer Row Column LocalX LocalY LocalZ Label
     1     1     4     5 0.9 0.1 1 0 0 0 ModpathParticles-050 # Data Set 12: Grid Layer Row Column LocalX LocalY LocalZ Label
     1     1     5     5 0.1 0.9 1 0 0 0 ModpathParticles-051 # Data Set 12: Grid Layer Row Column LocalX LocalY LocalZ Label
     1     1     5     5 0.1 0.7 1 0 0 0 ModpathParticles-052 # Data Set 12: Grid Layer Row Column LocalX LocalY LocalZ Label
     1     1     5     5 0.1 0.5 1 0 0 0 ModpathParticles-053 # Data Set 12: Grid Layer Row Column LocalX LocalY LocalZ Label
     1     1     5     5 0.1 0.3 1 0 0 0 ModpathParticles-054 # Data Set 12: Grid Layer Row Column LocalX LocalY LocalZ Label
     1     1     5     5 0.1 0.1 1 0 0 0 ModpathParticles-055 # Data Set 12: Grid Layer Row Column LocalX LocalY LocalZ Label
     1     1     5     5 0.3 0.9 1 0 0 0 ModpathParticles-056 # Data Set 12: Grid Layer Row Column LocalX LocalY LocalZ Label
     1     1     5     5 0.3 0.7 1 0 0 0 ModpathParticles-057 # Data Set 12: Grid Layer Row Column LocalX LocalY LocalZ Label
     1     1     5     5 0.3 0.5 1 0 0 0 ModpathParticles-058 # Data Set 12: Grid Layer Row Column LocalX LocalY LocalZ Label
     1     1     5     5 0.3 0.3 1 0 0 0 ModpathParticles-059 # Data Set 12: Grid Layer Row Column LocalX LocalY LocalZ Label
     1     1     5     5 0.3 0.1 1 0 0 0 ModpathParticles-060 # Data Set 12: Grid Layer Row Column LocalX LocalY LocalZ Label
     1     1     5     5 0.5 0.9 1 0 0 0 ModpathParticles-061 # Data Set 12: Grid Layer Row Column LocalX LocalY LocalZ Label
     1     1     5     5 0.5 0.7 1 0 0 0 ModpathParticles-062 # Data Set 12: Grid Layer Row Column LocalX LocalY LocalZ Label
     1     1     5     5 0.5 0.5 1 0 0 0 ModpathParticles-063 # Data Set 12: Grid Layer Row Column LocalX LocalY LocalZ Label
     1     1     5     5 0.5 0.3 1 0 0 0 ModpathParticles-064 # Data Set 12: Grid Layer Row Column LocalX LocalY LocalZ Label
     1     1     5     5 0.5 0.1 1 0 0 0 ModpathParticles-065 # Data Set 12: Grid Layer Row Column LocalX LocalY LocalZ Label
     1     1     5     5 0.7 0.9 1 0 0 0 ModpathParticles-066 # Data Set 12: Grid Layer Row Column LocalX LocalY LocalZ Label
     1     1     5     5 0.7 0.7 1 0 0 0 ModpathParticles-067 # Data Set 12: Grid Layer Row Column LocalX LocalY LocalZ Label
     1     1     5     5 0.7 0.5 1 0 0 0 ModpathParticles-068 # Data Set 12: Grid Layer Row Column LocalX LocalY LocalZ Label
     1     1     5     5 0.7 0.3 1 0 0 0 ModpathParticles-069 # Data Set 12: Grid Layer Row Column LocalX LocalY LocalZ Label
     1     1     5     5 0.7 0.1 1 0 0 0 ModpathParticles-070 # Data Set 12: Grid Layer Row Column LocalX LocalY LocalZ Label
     1     1     5     5 0.9 0.9 1 0 0 0 ModpathParticles-071 # Data Set 12: Grid Layer Row Column LocalX LocalY LocalZ Label
     1     1     5     5 0.9 0.7 1 0 0 0 ModpathParticles-072 # Data Set 12: Grid Layer Row Column LocalX LocalY LocalZ Label
     1     1     5     5 0.9 0.5 1 0 0 0 ModpathParticles-073 # Data Set 12: Grid Layer Row Column LocalX LocalY LocalZ Label
     1     1     5     5 0.9 0.3 1 0 0 0 ModpathParticles-074 # Data Set 12: Grid Layer Row Column LocalX LocalY LocalZ Label
     1     1     5     5 0.9 0.1 1 0 0 0 ModpathParticles-075 # Data Set 12: Grid Layer Row Column LocalX LocalY LocalZ Label
     1     1     3     6 0.1 0.9 1 0 0 0 ModpathParticles-076 # Data Set 12: Grid Layer Row Column LocalX LocalY LocalZ Label
     1     1     3     6 0.1 0.7 1 0 0 0 ModpathParticles-077 # Data Set 12: Grid Layer Row Column LocalX LocalY LocalZ Label
     1     1     3     6 0.1 0.5 1 0 0 0 ModpathParticles-078 # Data Set 12: Grid Layer Row Column LocalX LocalY LocalZ Label
     1     1     3     6 0.1 0.3 1 0 0 0 ModpathParticles-079 # Data Set 12: Grid Layer Row Column LocalX LocalY LocalZ Label
     1     1     3     6 0.1 0.1 1 0 0 0 ModpathParticles-080 # Data Set 12: Grid Layer Row Column LocalX LocalY LocalZ Label
     1     1     3     6 0.3 0.9 1 0 0 0 ModpathParticles-081 # Data Set 12: Grid Layer Row Column LocalX LocalY LocalZ Label
     1     1     3     6 0.3 0.7 1 0 0 0 ModpathParticles-082 # Data Set 12: Grid Layer Row Column LocalX LocalY LocalZ Label
     1     1     3     6 0.3 0.5 1 0 0 0 ModpathParticles-083 # Data Set 12: Grid Layer Row Column LocalX LocalY LocalZ Label
     1     1     3     6 0.3 0.3 1 0 0 0 ModpathParticles-084 # Data Set 12: Grid Layer Row Column LocalX LocalY LocalZ Label
     1     1     3     6 0.3 0.1 1 0 0 0 ModpathParticles-085 # Data Set 12: Grid Layer Row Column LocalX LocalY LocalZ Label
     1     1     3     6 0.5 0.9 1 0 0 0 ModpathParticles-086 # Data Set 12: Grid Layer Row Column LocalX LocalY LocalZ Label
     1     1     3     6 0.5 0.7 1 0 0 0 ModpathParticles-087 # Data Set 12: Grid Layer Row Column LocalX LocalY LocalZ Label
     1     1     3     6 0.5 0.5 1 0 0 0 ModpathParticles-088 # Data Set 12: Grid Layer Row Column LocalX LocalY LocalZ Label
     1     1     3     6 0.5 0.3 1 0 0 0 ModpathParticles-089 # Data Set 12: Grid Layer Row Column LocalX LocalY LocalZ Label
     1     1     3     6 0.5 0.1 1 0 0 0 ModpathParticles-090 # Data Set 12: Grid Layer Row Column LocalX LocalY LocalZ Label
     1     1     3     6 0.7 0.9 1 0 0 0 ModpathParticles-091 # Data Set 12: Grid Layer Row Column LocalX LocalY LocalZ Label
     1     1     3     6 0.7 0.7 1 0 0 0 ModpathParticles-092 # Data Set 12: Grid Layer Row Column LocalX LocalY LocalZ Label
     1     1     3     6 0.7 0.5 1 0 0 0 ModpathParticles-093 # Data Set 12: Grid Layer Row Column LocalX LocalY LocalZ Label
     1     1     3     6 0.7 0.3 1 0 0 0 ModpathParticles-094 # Data Set 12: Grid Layer Row Column LocalX LocalY LocalZ Label
     1     1     3     6 0.7 0.1 1 0 0 0 ModpathParticles-095 # Data Set 12: Grid Layer Row Column LocalX LocalY LocalZ Label
     1     1     3     6 0.9 0.9 1 0 0 0 ModpathParticles-096 # Data Set 12: Grid Layer Row Column LocalX LocalY LocalZ Label
     1     1     3     6 0.9 0.7 1 0 0 0 ModpathParticles-097 # Data Set 12: Grid Layer Row Column LocalX LocalY LocalZ Label
     1     1     3     6 0.9 0.5 1 0 0 0 ModpathParticles-098 # Data Set 12: Grid Layer Row Column LocalX LocalY LocalZ Label
     1     1     3     6 0.9 0.3 1 0 0 0 ModpathParticles-099 # Data Set 12: Grid Layer Row Column LocalX LocalY LocalZ Label
     1     1     3     6 0.9 0.1 1 0 0 0 ModpathParticles-100 # Data Set 12: Grid Layer Row Column LocalX LocalY LocalZ Label
     1     1     4     6 0.1 0.9 1 0 0 0 ModpathParticles-101 # Data Set 12: Grid Layer Row Column LocalX LocalY LocalZ Label
     1     1     4     6 0.1 0.7 1 0 0 0 ModpathParticles-102 # Data Set 12: Grid Layer Row Column LocalX LocalY LocalZ Label
     1     1     4     6 0.1 0.5 1 0 0 0 ModpathParticles-103 # Data Set 12: Grid Layer Row Column LocalX LocalY LocalZ Label
     1     1     4     6 0.1 0.3 1 0 0 0 ModpathParticles-104 # Data Set 12: Grid Layer Row Column LocalX LocalY LocalZ Label
     1     1     4     6 0.1 0.1 1 0 0 0 ModpathParticles-105 # Data Set 12: Grid Layer Row Column LocalX LocalY LocalZ Label
     1     1     4     6 0.3 0.9 1 0 0 0 ModpathParticles-106 # Data Set 12: Grid Layer Row Column LocalX LocalY LocalZ Label
     1     1     4     6 0.3 0.7 1 0 0 0 ModpathParticles-107 # Data Set 12: Grid Layer Row Column LocalX LocalY LocalZ Label
     1     1     4     6 0.3 0.5 1 0 0 0 ModpathParticles-108 # Data Set 12: Grid Layer Row Column LocalX LocalY LocalZ Label
     1     1     4     6 0.3 0.3 1 0 0 0 ModpathParticles-109 # Data Set 12: Grid Layer Row Column LocalX LocalY LocalZ Label
     1     1     4     6 0.3 0.1 1 0 0 0 ModpathParticles-110 # Data Set 12: Grid Layer Row Column LocalX LocalY LocalZ Label
     1     1     4     6 0.5 0.9 1 0 0 0 ModpathParticles-111 # Data Set 12: Grid Layer Row Column LocalX LocalY LocalZ Label
     1     1     4     6 0.5 0.7 1 0 0 0 ModpathParticles-112 # Data Set 12: Grid Layer Row Column LocalX LocalY LocalZ Label
     1     1     4     6 0.5 0.5 1 0 0 0 ModpathParticles-113 # Data Set 12: Grid Layer Row Column LocalX LocalY LocalZ Label
     1     1     4     6 0.5 0.3 1 0 0 0 ModpathParticles-114 # Data Set 12: Grid Layer Row Column LocalX LocalY LocalZ Label
     1     1     4     6 0.5 0.1 1 0 0 0 ModpathParticles-115 # Data Set 12: Grid Layer Row Column LocalX LocalY LocalZ Label
     1     1     4     6 0.7 0.9 1 0 0 0 ModpathParticles-116 # Data Set 12: Grid Layer Row Column LocalX LocalY LocalZ Label
     1     1     4     6 0.7 0.7 1 0 0 0 ModpathParticles-117 # Data Set 12: Grid Layer Row Column LocalX LocalY LocalZ Label
     1     1     4     6 0.7 0.5 1 0 0 0 ModpathParticles-118 # Data Set 12: Grid Layer Row Column LocalX LocalY LocalZ Label
     1     1     4     6 0.7 0.3 1 0 0 0 ModpathParticles-119 # Data Set 12: Grid Layer Row Column LocalX LocalY LocalZ Label
     1     1     4     6 0.7 0.1 1 0 0 0 ModpathParticles-120 # Data Set 12: Grid Layer Row Column LocalX LocalY LocalZ Label
     1     1     4     6 0.9 0.9 1 0 0 0 ModpathParticles-121 # Data Set 12: Grid Layer Row Column LocalX LocalY LocalZ Label
     1     1     4     6 0.9 0.7 1 0 0 0 ModpathParticles-122 # Data Set 12: Grid Layer Row Column LocalX LocalY LocalZ Label
     1     1     4     6 0.9 0.5 1 0 0 0 ModpathParticles-123 # Data Set 12: Grid Layer Row Column LocalX LocalY LocalZ Label
     1     1     4     6 0.9 0.3 1 0 0 0 ModpathParticles-124 # Data Set 12: Grid Layer Row Column LocalX LocalY LocalZ Label
     1     1     4     6 0.9 0.1 1 0 0 0 ModpathParticles-125 # Data Set 12: Grid Layer Row Column LocalX LocalY LocalZ Label
     1     1     5     6 0.1 0.9 1 0 0 0 ModpathParticles-126 # Data Set 12: Grid Layer Row Column LocalX LocalY LocalZ Label
     1     1     5     6 0.1 0.7 1 0 0 0 ModpathParticles-127 # Data Set 12: Grid Layer Row Column LocalX LocalY LocalZ Label
     1     1     5     6 0.1 0.5 1 0 0 0 ModpathParticles-128 # Data Set 12: Grid Layer Row Column LocalX LocalY LocalZ Label
     1     1     5     6 0.1 0.3 1 0 0 0 ModpathParticles-129 # Data Set 12: Grid Layer Row Column LocalX LocalY LocalZ Label
     1     1     5     6 0.1 0.1 1 0 0 0 ModpathParticles-130 # Data Set 12: Grid Layer Row Column LocalX LocalY LocalZ Label
     1     1     5     6 0.3 0.9 1 0 0 0 ModpathParticles-131 # Data Set 12: Grid Layer Row Column LocalX LocalY LocalZ Label
     1     1     5     6 0.3 0.7 1 0 0 0 ModpathParticles-132 # Data Set 12: Grid Layer Row Column LocalX LocalY LocalZ Label
     1     1     5     6 0.3 0.5 1 0 0 0 ModpathParticles-133 # Data Set 12: Grid Layer Row Column LocalX LocalY LocalZ Label
     1     1     5     6 0.3 0.3 1 0 0 0 ModpathParticles-134 # Data Set 12: Grid Layer Row Column LocalX LocalY LocalZ Label
     1     1     5     6 0.3 0.1 1 0 0 0 ModpathParticles-135 # Data Set 12: Grid Layer Row Column LocalX LocalY LocalZ Label
     1     1     5     6 0.5 0.9 1 0 0 0 ModpathParticles-136 # Data Set 12: Grid Layer Row Column LocalX LocalY LocalZ Label
     1     1     5     6 0.5 0.7 1 0 0 0 ModpathParticles-137 # Data Set 12: Grid Layer Row Column LocalX LocalY LocalZ Label
     1     1     5     6 0.5 0.5 1 0 0 0 ModpathParticles-138 # Data Set 12: Grid Layer Row Column LocalX LocalY LocalZ Label
     1     1     5     6 0.5 0.3 1 0 0 0 ModpathParticles-139 # Data Set 12: Grid Layer Row Column LocalX LocalY LocalZ Label
     1     1     5     6 0.5 0.1 1 0 0 0 ModpathParticles-140 # Data Set 12: Grid Layer Row Column LocalX LocalY LocalZ Label
     1     1     5     6 0.7 0.9 1 0 0 0 ModpathParticles-141 # Data Set 12: Grid Layer Row Column LocalX LocalY LocalZ Label
     1     1     5     6 0.7 0.7 1 0 0 0 ModpathParticles-142 # Data Set 12: Grid Layer Row Column LocalX LocalY LocalZ Label
     1     1     5     6 0.7 0.5 1 0 0 0 ModpathParticles-143 # Data Set 12: Grid Layer Row Column LocalX LocalY LocalZ Label
     1     1     5     6 0.7 0.3 1 0 0 0 ModpathParticles-144 # Data Set 12: Grid Layer Row Column LocalX LocalY LocalZ Label
     1     1     5     6 0.7 0.1 1 0 0 0 ModpathParticles-145 # Data Set 12: Grid Layer Row Column LocalX LocalY LocalZ Label
     1     1     5     6 0.9 0.9 1 0 0 0 ModpathParticles-146 # Data Set 12: Grid Layer Row Column LocalX LocalY LocalZ Label
     1     1     5     6 0.9 0.7 1 0 0 0 ModpathParticles-147 # Data Set 12: Grid Layer Row Column LocalX LocalY LocalZ Label
     1     1     5     6 0.9 0.5 1 0 0 0 ModpathParticles-148 # Data Set 12: Grid Layer Row Column LocalX LocalY LocalZ Label
     1     1     5     6 0.9 0.3 1 0 0 0 ModpathParticles-149 # Data Set 12: Grid Layer Row Column LocalX LocalY LocalZ Label
     1     1     5     6 0.9 0.1 1 0 0 0 ModpathParticles-150 # Data Set 12: Grid Layer Row Column LocalX LocalY LocalZ Label
     1     1     3     7 0.1 0.9 1 0 0 0 ModpathParticles-151 # Data Set 12: Grid Layer Row Column LocalX LocalY LocalZ Label
     1     1     3     7 0.1 0.7 1 0 0 0 ModpathParticles-152 # Data Set 12: Grid Layer Row Column LocalX LocalY LocalZ Label
     1     1     3     7 0.1 0.5 1 0 0 0 ModpathParticles-153 # Data Set 12: Grid Layer Row Column LocalX LocalY LocalZ Label
     1     1     3     7 0.1 0.3 1 0 0 0 ModpathParticles-154 # Data Set 12: Grid Layer Row Column LocalX LocalY LocalZ Label
     1     1     3     7 0.1 0.1 1 0 0 0 ModpathParticles-155 # Data Set 12: Grid Layer Row Column LocalX LocalY LocalZ Label
     1     1     3     7 0.3 0.9 1 0 0 0 ModpathParticles-156 # Data Set 12: Grid Layer Row Column LocalX LocalY LocalZ Label
     1     1     3     7 0.3 0.7 1 0 0 0 ModpathParticles-157 # Data Set 12: Grid Layer Row Column LocalX LocalY LocalZ Label
     1     1     3     7 0.3 0.5 1 0 0 0 ModpathParticles-158 # Data Set 12: Grid Layer Row Column LocalX LocalY LocalZ Label
     1     1     3     7 0.3 0.3 1 0 0 0 ModpathParticles-159 # Data Set 12: Grid Layer Row Column LocalX LocalY LocalZ Label
     1     1     3     7 0.3 0.1 1 0 0 0 ModpathParticles-160 # Data Set 12: Grid Layer Row Column LocalX LocalY LocalZ Label
     1     1     3     7 0.5 0.9 1 0 0 0 ModpathParticles-161 # Data Set 12: Grid Layer Row Column LocalX LocalY LocalZ Label
     1     1     3     7 0.5 0.7 1 0 0 0 ModpathParticles-162 # Data Set 12: Grid Layer Row Column LocalX LocalY LocalZ Label
     1     1     3     7 0.5 0.5 1 0 0 0 ModpathParticles-163 # Data Set 12: Grid Layer Row Column LocalX LocalY LocalZ Label
     1     1     3     7 0.5 0.3 1 0 0 0 ModpathParticles-164 # Data Set 12: Grid Layer Row Column LocalX LocalY LocalZ Label
     1     1     3     7 0.5 0.1 1 0 0 0 ModpathParticles-165 # Data Set 12: Grid Layer Row Column LocalX LocalY LocalZ Label
     1     1     3     7 0.7 0.9 1 0 0 0 ModpathParticles-166 # Data Set 12: Grid Layer Row Column LocalX LocalY LocalZ Label
     1     1     3     7 0.7 0.7 1 0 0 0 ModpathParticles-167 # Data Set 12: Grid Layer Row Column LocalX LocalY LocalZ Label
     1     1     3     7 0.7 0.5 1 0 0 0 ModpathParticles-168 # Data Set 12: Grid Layer Row Column LocalX LocalY LocalZ Label
     1     1     3     7 0.7 0.3 1 0 0 0 ModpathParticles-169 # Data Set 12: Grid Layer Row Column LocalX LocalY LocalZ Label
     1     1     3     7 0.7 0.1 1 0 0 0 ModpathParticles-170 # Data Set 12: Grid Layer Row Column LocalX LocalY LocalZ Label
     1     1     3     7 0.9 0.9 1 0 0 0 ModpathParticles-171 # Data Set 12: Grid Layer Row Column LocalX LocalY LocalZ Label
     1     1     3     7 0.9 0.7 1 0 0 0 ModpathParticles-172 # Data Set 12: Grid Layer Row Column LocalX LocalY LocalZ Label
     1     1     3     7 0.9 0.5 1 0 0 0 ModpathParticles-173 # Data Set 12: Grid Layer Row Column LocalX LocalY LocalZ Label
     1     1     3     7 0.9 0.3 1 0 0 0 ModpathParticles-174 # Data Set 12: Grid Layer Row Column LocalX LocalY LocalZ Label
     1     1     3     7 0.9 0.1 1 0 0 0 ModpathParticles-175 # Data Set 12: Grid Layer Row Column LocalX LocalY LocalZ Label
     1     1     4     7 0.1 0.9 1 0 0 0 ModpathParticles-176 # Data Set 12: Grid Layer Row Column LocalX LocalY LocalZ Label
     1     1     4     7 0.1 0.7 1 0 0 0 ModpathParticles-177 # Data Set 12: Grid Layer Row Column LocalX LocalY LocalZ Label
     1     1     4     7 0.1 0.5 1 0 0 0 ModpathParticles-178 # Data Set 12: Grid Layer Row Column LocalX LocalY LocalZ Label
     1     1     4     7 0.1 0.3 1 0 0 0 ModpathParticles-179 # Data Set 12: Grid Layer Row Column LocalX LocalY LocalZ Label
     1     1     4     7 0.1 0.1 1 0 0 0 ModpathParticles-180 # Data Set 12: Grid Layer Row Column LocalX LocalY LocalZ Label
     1     1     4     7 0.3 0.9 1 0 0 0 ModpathParticles-181 # Data Set 12: Grid Layer Row Column LocalX LocalY LocalZ Label
     1     1     4     7 0.3 0.7 1 0 0 0 ModpathParticles-182 # Data Set 12: Grid Layer Row Column LocalX LocalY LocalZ Label
     1     1     4     7 0.3 0.5 1 0 0 0 ModpathParticles-183 # Data Set 12: Grid Layer Row Column LocalX LocalY LocalZ Label
     1     1     4     7 0.3 0.3 1 0 0 0 ModpathParticles-184 # Data Set 12: Grid Layer Row Column LocalX LocalY LocalZ Label
     1     1     4     7 0.3 0.1 1 0 0 0 ModpathParticles-185 # Data Set 12: Grid Layer Row Column LocalX LocalY LocalZ Label
     1     1     4     7 0.5 0.9 1 0 0 0 ModpathParticles-186 # Data Set 12: Grid Layer Row Column LocalX LocalY LocalZ Label
     1     1     4     7 0.5 0.7 1 0 0 0 ModpathParticles-187 # Data Set 12: Grid Layer Row Column LocalX LocalY LocalZ Label
     1     1     4     7 0.5 0.5 1 0 0 0 ModpathParticles-188 # Data Set 12: Grid Layer Row Column LocalX LocalY LocalZ Label
     1     1     4     7 0.5 0.3 1 0 0 0 ModpathParticles-189 # Data Set 12: Grid Layer Row Column LocalX LocalY LocalZ Label
     1     1     4     7 0.5 0.1 1 0 0 0 ModpathParticles-190 # Data Set 12: Grid Layer Row Column LocalX LocalY LocalZ Label
     1     1     4     7 0.7 0.9 1 0 0 0 ModpathParticles-191 # Data Set 12: Grid Layer Row Column LocalX LocalY LocalZ Label
     1     1     4     7 0.7 0.7 1 0 0 0 ModpathParticles-192 # Data Set 12: Grid Layer Row Column LocalX LocalY LocalZ Label
     1     1     4     7 0.7 0.5 1 0 0 0 ModpathParticles-193 # Data Set 12: Grid Layer Row Column LocalX LocalY LocalZ Label
     1     1     4     7 0.7 0.3 1 0 0 0 ModpathParticles-194 # Data Set 12: Grid Layer Row Column LocalX LocalY LocalZ Label
     1     1     4     7 0.7 0.1 1 0 0 0 ModpathParticles-195 # Data Set 12: Grid Layer Row Column LocalX LocalY LocalZ Label
     1     1     4     7 0.9 0.9 1 0 0 0 ModpathParticles-196 # Data Set 12: Grid Layer Row Column LocalX LocalY LocalZ Label
     1     1     4     7 0.9 0.7 1 0 0 0 ModpathParticles-197 # Data Set 12: Grid Layer Row Column LocalX LocalY LocalZ Label
     1     1     4     7 0.9 0.5 1 0 0 0 ModpathParticles-198 # Data Set 12: Grid Layer Row Column LocalX LocalY LocalZ Label
     1     1     4     7 0.9 0.3 1 0 0 0 ModpathParticles-199 # Data Set 12: Grid Layer Row Column LocalX LocalY LocalZ Label
     1     1     4     7 0.9 0.1 1 0 0 0 ModpathParticles-200 # Data Set 12: Grid Layer Row Column LocalX LocalY LocalZ Label
     1     1     5     7 0.1 0.9 1 0 0 0 ModpathParticles-201 # Data Set 12: Grid Layer Row Column LocalX LocalY LocalZ Label
     1     1     5     7 0.1 0.7 1 0 0 0 ModpathParticles-202 # Data Set 12: Grid Layer Row Column LocalX LocalY LocalZ Label
     1     1     5     7 0.1 0.5 1 0 0 0 ModpathParticles-203 # Data Set 12: Grid Layer Row Column LocalX LocalY LocalZ Label
     1     1     5     7 0.1 0.3 1 0 0 0 ModpathParticles-204 # Data Set 12: Grid Layer Row Column LocalX LocalY LocalZ Label
     1     1     5     7 0.1 0.1 1 0 0 0 ModpathParticles-205 # Data Set 12: Grid Layer Row Column LocalX LocalY LocalZ Label
     1     1     5     7 0.3 0.9 1 0 0 0 ModpathParticles-206 # Data Set 12: Grid Layer Row Column LocalX LocalY LocalZ Label
     1     1     5     7 0.3 0.7 1 0 0 0 ModpathParticles-207 # Data Set 12: Grid Layer Row Column LocalX LocalY LocalZ Label
     1     1     5     7 0.3 0.5 1 0 0 0 ModpathParticles-208 # Data Set 12: Grid Layer Row Column LocalX LocalY LocalZ Label
     1     1     5     7 0.3 0.3 1 0 0 0 ModpathParticles-209 # Data Set 12: Grid Layer Row Column LocalX LocalY LocalZ Label
     1     1     5     7 0.3 0.1 1 0 0 0 ModpathParticles-210 # Data Set 12: Grid Layer Row Column LocalX LocalY LocalZ Label
     1     1     5     7 0.5 0.9 1 0 0 0 ModpathParticles-211 # Data Set 12: Grid Layer Row Column LocalX LocalY LocalZ Label
     1     1     5     7 0.5 0.7 1 0 0 0 ModpathParticles-212 # Data Set 12: Grid Layer Row Column LocalX LocalY LocalZ Label
     1     1     5     7 0.5 0.5 1 0 0 0 ModpathParticles-213 # Data Set 12: Grid Layer Row Column LocalX LocalY LocalZ Label
     1     1     5     7 0.5 0.3 1 0 0 0 ModpathParticles-214 # Data Set 12: Grid Layer Row Column LocalX LocalY LocalZ Label
     1     1     5     7 0.5 0.1 1 0 0 0 ModpathParticles-215 # Data Set 12: Grid Layer Row Column LocalX LocalY LocalZ Label
     1     1     5     7 0.7 0.9 1 0 0 0 ModpathParticles-216 # Data Set 12: Grid Layer Row Column LocalX LocalY LocalZ Label
     1     1     5     7 0.7 0.7 1 0 0 0 ModpathParticles-217 # Data Set 12: Grid Layer Row Column LocalX LocalY LocalZ Label
     1     1     5     7 0.7 0.5 1 0 0 0 ModpathParticles-218 # Data Set 12: Grid Layer Row Column LocalX LocalY LocalZ Label
     1     1     5     7 0.7 0.3 1 0 0 0 ModpathParticles-219 # Data Set 12: Grid Layer Row Column LocalX LocalY LocalZ Label
     1     1     5     7 0.7 0.1 1 0 0 0 ModpathParticles-220 # Data Set 12: Grid Layer Row Column LocalX LocalY LocalZ Label
     1     1     5     7 0.9 0.9 1 0 0 0 ModpathParticles-221 # Data Set 12: Grid Layer Row Column LocalX LocalY LocalZ Label
     1     1     5     7 0.9 0.7 1 0 0 0 ModpathParticles-222 # Data Set 12: Grid Layer Row Column LocalX LocalY LocalZ Label
     1     1     5     7 0.9 0.5 1 0 0 0 ModpathParticles-223 # Data Set 12: Grid Layer Row Column LocalX LocalY LocalZ Label
     1     1     5     7 0.9 0.3 1 0 0 0 ModpathParticles-224 # Data Set 12: Grid Layer Row Column LocalX LocalY LocalZ Label
     1     1     5     7 0.9 0.1 1 0 0 0 ModpathParticles-225 # Data Set 12: Grid Layer Row Column LocalX LocalY LocalZ Label
