# MODPATH Starting Locations file file created on 12/12/2015 by ModelMuse version 3.6.3.5.
     2 # Data Set 1: InputStyle
     1 # Data Set 6: GroupCount
ModpathParticles # Data Set 7: GroupName
  2400  0.000000000000E+000      1 # Data Set 8: LocationCount ReleaseStartTime ReleaseOption
     1     1     1     1 0.25 0.75 1 0 0 0 ModpathParticles-0001 # Data Set 12: Grid Layer Row Column LocalX LocalY LocalZ Label
     1     1     1     1 0.25 0.25 1 0 0 0 ModpathParticles-0002 # Data Set 12: Grid Layer Row Column LocalX LocalY LocalZ Label
     1     1     1     1 0.75 0.75 1 0 0 0 ModpathParticles-0003 # Data Set 12: Grid Layer Row Column LocalX LocalY LocalZ Label
     1     1     1     1 0.75 0.25 1 0 0 0 ModpathParticles-0004 # Data Set 12: Grid Layer Row Column LocalX LocalY LocalZ Label
     1     1     2     1 0.25 0.75 1 0 0 0 ModpathParticles-0005 # Data Set 12: Grid Layer Row Column LocalX LocalY LocalZ Label
     1     1     2     1 0.25 0.25 1 0 0 0 ModpathParticles-0006 # Data Set 12: Grid Layer Row Column LocalX LocalY LocalZ Label
     1     1     2     1 0.75 0.75 1 0 0 0 ModpathParticles-0007 # Data Set 12: Grid Layer Row Column LocalX LocalY LocalZ Label
     1     1     2     1 0.75 0.25 1 0 0 0 ModpathParticles-0008 # Data Set 12: Grid Layer Row Column LocalX LocalY LocalZ Label
     1     1     3     1 0.25 0.75 1 0 0 0 ModpathParticles-0009 # Data Set 12: Grid Layer Row Column LocalX LocalY LocalZ Label
     1     1     3     1 0.25 0.25 1 0 0 0 ModpathParticles-0010 # Data Set 12: Grid Layer Row Column LocalX LocalY LocalZ Label
     1     1     3     1 0.75 0.75 1 0 0 0 ModpathParticles-0011 # Data Set 12: Grid Layer Row Column LocalX LocalY LocalZ Label
     1     1     3     1 0.75 0.25 1 0 0 0 ModpathParticles-0012 # Data Set 12: Grid Layer Row Column LocalX LocalY LocalZ Label
     1     1     4     1 0.25 0.75 1 0 0 0 ModpathParticles-0013 # Data Set 12: Grid Layer Row Column LocalX LocalY LocalZ Label
     1     1     4     1 0.25 0.25 1 0 0 0 ModpathParticles-0014 # Data Set 12: Grid Layer Row Column LocalX LocalY LocalZ Label
     1     1     4     1 0.75 0.75 1 0 0 0 ModpathParticles-0015 # Data Set 12: Grid Layer Row Column LocalX LocalY LocalZ Label
     1     1     4     1 0.75 0.25 1 0 0 0 ModpathParticles-0016 # Data Set 12: Grid Layer Row Column LocalX LocalY LocalZ Label
     1     1     5     1 0.25 0.75 1 0 0 0 ModpathParticles-0017 # Data Set 12: Grid Layer Row Column LocalX LocalY LocalZ Label
     1     1     5     1 0.25 0.25 1 0 0 0 ModpathParticles-0018 # Data Set 12: Grid Layer Row Column LocalX LocalY LocalZ Label
     1     1     5     1 0.75 0.75 1 0 0 0 ModpathParticles-0019 # Data Set 12: Grid Layer Row Column LocalX LocalY LocalZ Label
     1     1     5     1 0.75 0.25 1 0 0 0 ModpathParticles-0020 # Data Set 12: Grid Layer Row Column LocalX LocalY LocalZ Label
     1     1     6     1 0.25 0.75 1 0 0 0 ModpathParticles-0021 # Data Set 12: Grid Layer Row Column LocalX LocalY LocalZ Label
     1     1     6     1 0.25 0.25 1 0 0 0 ModpathParticles-0022 # Data Set 12: Grid Layer Row Column LocalX LocalY LocalZ Label
     1     1     6     1 0.75 0.75 1 0 0 0 ModpathParticles-0023 # Data Set 12: Grid Layer Row Column LocalX LocalY LocalZ Label
     1     1     6     1 0.75 0.25 1 0 0 0 ModpathParticles-0024 # Data Set 12: Grid Layer Row Column LocalX LocalY LocalZ Label
     1     1     7     1 0.25 0.75 1 0 0 0 ModpathParticles-0025 # Data Set 12: Grid Layer Row Column LocalX LocalY LocalZ Label
     1     1     7     1 0.25 0.25 1 0 0 0 ModpathParticles-0026 # Data Set 12: Grid Layer Row Column LocalX LocalY LocalZ Label
     1     1     7     1 0.75 0.75 1 0 0 0 ModpathParticles-0027 # Data Set 12: Grid Layer Row Column LocalX LocalY LocalZ Label
     1     1     7     1 0.75 0.25 1 0 0 0 ModpathParticles-0028 # Data Set 12: Grid Layer Row Column LocalX LocalY LocalZ Label
     1     1     8     1 0.25 0.75 1 0 0 0 ModpathParticles-0029 # Data Set 12: Grid Layer Row Column LocalX LocalY LocalZ Label
     1     1     8     1 0.25 0.25 1 0 0 0 ModpathParticles-0030 # Data Set 12: Grid Layer Row Column LocalX LocalY LocalZ Label
     1     1     8     1 0.75 0.75 1 0 0 0 ModpathParticles-0031 # Data Set 12: Grid Layer Row Column LocalX LocalY LocalZ Label
     1     1     8     1 0.75 0.25 1 0 0 0 ModpathParticles-0032 # Data Set 12: Grid Layer Row Column LocalX LocalY LocalZ Label
     1     1     9     1 0.25 0.75 1 0 0 0 ModpathParticles-0033 # Data Set 12: Grid Layer Row Column LocalX LocalY LocalZ Label
     1     1     9     1 0.25 0.25 1 0 0 0 ModpathParticles-0034 # Data Set 12: Grid Layer Row Column LocalX LocalY LocalZ Label
     1     1     9     1 0.75 0.75 1 0 0 0 ModpathParticles-0035 # Data Set 12: Grid Layer Row Column LocalX LocalY LocalZ Label
     1     1     9     1 0.75 0.25 1 0 0 0 ModpathParticles-0036 # Data Set 12: Grid Layer Row Column LocalX LocalY LocalZ Label
     1     1    10     1 0.25 0.75 1 0 0 0 ModpathParticles-0037 # Data Set 12: Grid Layer Row Column LocalX LocalY LocalZ Label
     1     1    10     1 0.25 0.25 1 0 0 0 ModpathParticles-0038 # Data Set 12: Grid Layer Row Column LocalX LocalY LocalZ Label
     1     1    10     1 0.75 0.75 1 0 0 0 ModpathParticles-0039 # Data Set 12: Grid Layer Row Column LocalX LocalY LocalZ Label
     1     1    10     1 0.75 0.25 1 0 0 0 ModpathParticles-0040 # Data Set 12: Grid Layer Row Column LocalX LocalY LocalZ Label
     1     1    11     1 0.25 0.75 1 0 0 0 ModpathParticles-0041 # Data Set 12: Grid Layer Row Column LocalX LocalY LocalZ Label
     1     1    11     1 0.25 0.25 1 0 0 0 ModpathParticles-0042 # Data Set 12: Grid Layer Row Column LocalX LocalY LocalZ Label
     1     1    11     1 0.75 0.75 1 0 0 0 ModpathParticles-0043 # Data Set 12: Grid Layer Row Column LocalX LocalY LocalZ Label
     1     1    11     1 0.75 0.25 1 0 0 0 ModpathParticles-0044 # Data Set 12: Grid Layer Row Column LocalX LocalY LocalZ Label
     1     1    12     1 0.25 0.75 1 0 0 0 ModpathParticles-0045 # Data Set 12: Grid Layer Row Column LocalX LocalY LocalZ Label
     1     1    12     1 0.25 0.25 1 0 0 0 ModpathParticles-0046 # Data Set 12: Grid Layer Row Column LocalX LocalY LocalZ Label
     1     1    12     1 0.75 0.75 1 0 0 0 ModpathParticles-0047 # Data Set 12: Grid Layer Row Column LocalX LocalY LocalZ Label
     1     1    12     1 0.75 0.25 1 0 0 0 ModpathParticles-0048 # Data Set 12: Grid Layer Row Column LocalX LocalY LocalZ Label
     1     1    13     1 0.25 0.75 1 0 0 0 ModpathParticles-0049 # Data Set 12: Grid Layer Row Column LocalX LocalY LocalZ Label
     1     1    13     1 0.25 0.25 1 0 0 0 ModpathParticles-0050 # Data Set 12: Grid Layer Row Column LocalX LocalY LocalZ Label
     1     1    13     1 0.75 0.75 1 0 0 0 ModpathParticles-0051 # Data Set 12: Grid Layer Row Column LocalX LocalY LocalZ Label
     1     1    13     1 0.75 0.25 1 0 0 0 ModpathParticles-0052 # Data Set 12: Grid Layer Row Column LocalX LocalY LocalZ Label
     1     1    14     1 0.25 0.75 1 0 0 0 ModpathParticles-0053 # Data Set 12: Grid Layer Row Column LocalX LocalY LocalZ Label
     1     1    14     1 0.25 0.25 1 0 0 0 ModpathParticles-0054 # Data Set 12: Grid Layer Row Column LocalX LocalY LocalZ Label
     1     1    14     1 0.75 0.75 1 0 0 0 ModpathParticles-0055 # Data Set 12: Grid Layer Row Column LocalX LocalY LocalZ Label
     1     1    14     1 0.75 0.25 1 0 0 0 ModpathParticles-0056 # Data Set 12: Grid Layer Row Column LocalX LocalY LocalZ Label
     1     1    15     1 0.25 0.75 1 0 0 0 ModpathParticles-0057 # Data Set 12: Grid Layer Row Column LocalX LocalY LocalZ Label
     1     1    15     1 0.25 0.25 1 0 0 0 ModpathParticles-0058 # Data Set 12: Grid Layer Row Column LocalX LocalY LocalZ Label
     1     1    15     1 0.75 0.75 1 0 0 0 ModpathParticles-0059 # Data Set 12: Grid Layer Row Column LocalX LocalY LocalZ Label
     1     1    15     1 0.75 0.25 1 0 0 0 ModpathParticles-0060 # Data Set 12: Grid Layer Row Column LocalX LocalY LocalZ Label
     1     1    16     1 0.25 0.75 1 0 0 0 ModpathParticles-0061 # Data Set 12: Grid Layer Row Column LocalX LocalY LocalZ Label
     1     1    16     1 0.25 0.25 1 0 0 0 ModpathParticles-0062 # Data Set 12: Grid Layer Row Column LocalX LocalY LocalZ Label
     1     1    16     1 0.75 0.75 1 0 0 0 ModpathParticles-0063 # Data Set 12: Grid Layer Row Column LocalX LocalY LocalZ Label
     1     1    16     1 0.75 0.25 1 0 0 0 ModpathParticles-0064 # Data Set 12: Grid Layer Row Column LocalX LocalY LocalZ Label
     1     1    17     1 0.25 0.75 1 0 0 0 ModpathParticles-0065 # Data Set 12: Grid Layer Row Column LocalX LocalY LocalZ Label
     1     1    17     1 0.25 0.25 1 0 0 0 ModpathParticles-0066 # Data Set 12: Grid Layer Row Column LocalX LocalY LocalZ Label
     1     1    17     1 0.75 0.75 1 0 0 0 ModpathParticles-0067 # Data Set 12: Grid Layer Row Column LocalX LocalY LocalZ Label
     1     1    17     1 0.75 0.25 1 0 0 0 ModpathParticles-0068 # Data Set 12: Grid Layer Row Column LocalX LocalY LocalZ Label
     1     1    18     1 0.25 0.75 1 0 0 0 ModpathParticles-0069 # Data Set 12: Grid Layer Row Column LocalX LocalY LocalZ Label
     1     1    18     1 0.25 0.25 1 0 0 0 ModpathParticles-0070 # Data Set 12: Grid Layer Row Column LocalX LocalY LocalZ Label
     1     1    18     1 0.75 0.75 1 0 0 0 ModpathParticles-0071 # Data Set 12: Grid Layer Row Column LocalX LocalY LocalZ Label
     1     1    18     1 0.75 0.25 1 0 0 0 ModpathParticles-0072 # Data Set 12: Grid Layer Row Column LocalX LocalY LocalZ Label
     1     1    19     1 0.25 0.75 1 0 0 0 ModpathParticles-0073 # Data Set 12: Grid Layer Row Column LocalX LocalY LocalZ Label
     1     1    19     1 0.25 0.25 1 0 0 0 ModpathParticles-0074 # Data Set 12: Grid Layer Row Column LocalX LocalY LocalZ Label
     1     1    19     1 0.75 0.75 1 0 0 0 ModpathParticles-0075 # Data Set 12: Grid Layer Row Column LocalX LocalY LocalZ Label
     1     1    19     1 0.75 0.25 1 0 0 0 ModpathParticles-0076 # Data Set 12: Grid Layer Row Column LocalX LocalY LocalZ Label
     1     1    20     1 0.25 0.75 1 0 0 0 ModpathParticles-0077 # Data Set 12: Grid Layer Row Column LocalX LocalY LocalZ Label
     1     1    20     1 0.25 0.25 1 0 0 0 ModpathParticles-0078 # Data Set 12: Grid Layer Row Column LocalX LocalY LocalZ Label
     1     1    20     1 0.75 0.75 1 0 0 0 ModpathParticles-0079 # Data Set 12: Grid Layer Row Column LocalX LocalY LocalZ Label
     1     1    20     1 0.75 0.25 1 0 0 0 ModpathParticles-0080 # Data Set 12: Grid Layer Row Column LocalX LocalY LocalZ Label
     1     1    21     1 0.25 0.75 1 0 0 0 ModpathParticles-0081 # Data Set 12: Grid Layer Row Column LocalX LocalY LocalZ Label
     1     1    21     1 0.25 0.25 1 0 0 0 ModpathParticles-0082 # Data Set 12: Grid Layer Row Column LocalX LocalY LocalZ Label
     1     1    21     1 0.75 0.75 1 0 0 0 ModpathParticles-0083 # Data Set 12: Grid Layer Row Column LocalX LocalY LocalZ Label
     1     1    21     1 0.75 0.25 1 0 0 0 ModpathParticles-0084 # Data Set 12: Grid Layer Row Column LocalX LocalY LocalZ Label
     1     1    22     1 0.25 0.75 1 0 0 0 ModpathParticles-0085 # Data Set 12: Grid Layer Row Column LocalX LocalY LocalZ Label
     1     1    22     1 0.25 0.25 1 0 0 0 ModpathParticles-0086 # Data Set 12: Grid Layer Row Column LocalX LocalY LocalZ Label
     1     1    22     1 0.75 0.75 1 0 0 0 ModpathParticles-0087 # Data Set 12: Grid Layer Row Column LocalX LocalY LocalZ Label
     1     1    22     1 0.75 0.25 1 0 0 0 ModpathParticles-0088 # Data Set 12: Grid Layer Row Column LocalX LocalY LocalZ Label
     1     1    23     1 0.25 0.75 1 0 0 0 ModpathParticles-0089 # Data Set 12: Grid Layer Row Column LocalX LocalY LocalZ Label
     1     1    23     1 0.25 0.25 1 0 0 0 ModpathParticles-0090 # Data Set 12: Grid Layer Row Column LocalX LocalY LocalZ Label
     1     1    23     1 0.75 0.75 1 0 0 0 ModpathParticles-0091 # Data Set 12: Grid Layer Row Column LocalX LocalY LocalZ Label
     1     1    23     1 0.75 0.25 1 0 0 0 ModpathParticles-0092 # Data Set 12: Grid Layer Row Column LocalX LocalY LocalZ Label
     1     1    24     1 0.25 0.75 1 0 0 0 ModpathParticles-0093 # Data Set 12: Grid Layer Row Column LocalX LocalY LocalZ Label
     1     1    24     1 0.25 0.25 1 0 0 0 ModpathParticles-0094 # Data Set 12: Grid Layer Row Column LocalX LocalY LocalZ Label
     1     1    24     1 0.75 0.75 1 0 0 0 ModpathParticles-0095 # Data Set 12: Grid Layer Row Column LocalX LocalY LocalZ Label
     1     1    24     1 0.75 0.25 1 0 0 0 ModpathParticles-0096 # Data Set 12: Grid Layer Row Column LocalX LocalY LocalZ Label
     1     1    25     1 0.25 0.75 1 0 0 0 ModpathParticles-0097 # Data Set 12: Grid Layer Row Column LocalX LocalY LocalZ Label
     1     1    25     1 0.25 0.25 1 0 0 0 ModpathParticles-0098 # Data Set 12: Grid Layer Row Column LocalX LocalY LocalZ Label
     1     1    25     1 0.75 0.75 1 0 0 0 ModpathParticles-0099 # Data Set 12: Grid Layer Row Column LocalX LocalY LocalZ Label
     1     1    25     1 0.75 0.25 1 0 0 0 ModpathParticles-0100 # Data Set 12: Grid Layer Row Column LocalX LocalY LocalZ Label
     1     1     1     2 0.25 0.75 1 0 0 0 ModpathParticles-0101 # Data Set 12: Grid Layer Row Column LocalX LocalY LocalZ Label
     1     1     1     2 0.25 0.25 1 0 0 0 ModpathParticles-0102 # Data Set 12: Grid Layer Row Column LocalX LocalY LocalZ Label
     1     1     1     2 0.75 0.75 1 0 0 0 ModpathParticles-0103 # Data Set 12: Grid Layer Row Column LocalX LocalY LocalZ Label
     1     1     1     2 0.75 0.25 1 0 0 0 ModpathParticles-0104 # Data Set 12: Grid Layer Row Column LocalX LocalY LocalZ Label
     1     1     2     2 0.25 0.75 1 0 0 0 ModpathParticles-0105 # Data Set 12: Grid Layer Row Column LocalX LocalY LocalZ Label
     1     1     2     2 0.25 0.25 1 0 0 0 ModpathParticles-0106 # Data Set 12: Grid Layer Row Column LocalX LocalY LocalZ Label
     1     1     2     2 0.75 0.75 1 0 0 0 ModpathParticles-0107 # Data Set 12: Grid Layer Row Column LocalX LocalY LocalZ Label
     1     1     2     2 0.75 0.25 1 0 0 0 ModpathParticles-0108 # Data Set 12: Grid Layer Row Column LocalX LocalY LocalZ Label
     1     1     3     2 0.25 0.75 1 0 0 0 ModpathParticles-0109 # Data Set 12: Grid Layer Row Column LocalX LocalY LocalZ Label
     1     1     3     2 0.25 0.25 1 0 0 0 ModpathParticles-0110 # Data Set 12: Grid Layer Row Column LocalX LocalY LocalZ Label
     1     1     3     2 0.75 0.75 1 0 0 0 ModpathParticles-0111 # Data Set 12: Grid Layer Row Column LocalX LocalY LocalZ Label
     1     1     3     2 0.75 0.25 1 0 0 0 ModpathParticles-0112 # Data Set 12: Grid Layer Row Column LocalX LocalY LocalZ Label
     1     1     4     2 0.25 0.75 1 0 0 0 ModpathParticles-0113 # Data Set 12: Grid Layer Row Column LocalX LocalY LocalZ Label
     1     1     4     2 0.25 0.25 1 0 0 0 ModpathParticles-0114 # Data Set 12: Grid Layer Row Column LocalX LocalY LocalZ Label
     1     1     4     2 0.75 0.75 1 0 0 0 ModpathParticles-0115 # Data Set 12: Grid Layer Row Column LocalX LocalY LocalZ Label
     1     1     4     2 0.75 0.25 1 0 0 0 ModpathParticles-0116 # Data Set 12: Grid Layer Row Column LocalX LocalY LocalZ Label
     1     1     5     2 0.25 0.75 1 0 0 0 ModpathParticles-0117 # Data Set 12: Grid Layer Row Column LocalX LocalY LocalZ Label
     1     1     5     2 0.25 0.25 1 0 0 0 ModpathParticles-0118 # Data Set 12: Grid Layer Row Column LocalX LocalY LocalZ Label
     1     1     5     2 0.75 0.75 1 0 0 0 ModpathParticles-0119 # Data Set 12: Grid Layer Row Column LocalX LocalY LocalZ Label
     1     1     5     2 0.75 0.25 1 0 0 0 ModpathParticles-0120 # Data Set 12: Grid Layer Row Column LocalX LocalY LocalZ Label
     1     1     6     2 0.25 0.75 1 0 0 0 ModpathParticles-0121 # Data Set 12: Grid Layer Row Column LocalX LocalY LocalZ Label
     1     1     6     2 0.25 0.25 1 0 0 0 ModpathParticles-0122 # Data Set 12: Grid Layer Row Column LocalX LocalY LocalZ Label
     1     1     6     2 0.75 0.75 1 0 0 0 ModpathParticles-0123 # Data Set 12: Grid Layer Row Column LocalX LocalY LocalZ Label
     1     1     6     2 0.75 0.25 1 0 0 0 ModpathParticles-0124 # Data Set 12: Grid Layer Row Column LocalX LocalY LocalZ Label
     1     1     7     2 0.25 0.75 1 0 0 0 ModpathParticles-0125 # Data Set 12: Grid Layer Row Column LocalX LocalY LocalZ Label
     1     1     7     2 0.25 0.25 1 0 0 0 ModpathParticles-0126 # Data Set 12: Grid Layer Row Column LocalX LocalY LocalZ Label
     1     1     7     2 0.75 0.75 1 0 0 0 ModpathParticles-0127 # Data Set 12: Grid Layer Row Column LocalX LocalY LocalZ Label
     1     1     7     2 0.75 0.25 1 0 0 0 ModpathParticles-0128 # Data Set 12: Grid Layer Row Column LocalX LocalY LocalZ Label
     1     1     8     2 0.25 0.75 1 0 0 0 ModpathParticles-0129 # Data Set 12: Grid Layer Row Column LocalX LocalY LocalZ Label
     1     1     8     2 0.25 0.25 1 0 0 0 ModpathParticles-0130 # Data Set 12: Grid Layer Row Column LocalX LocalY LocalZ Label
     1     1     8     2 0.75 0.75 1 0 0 0 ModpathParticles-0131 # Data Set 12: Grid Layer Row Column LocalX LocalY LocalZ Label
     1     1     8     2 0.75 0.25 1 0 0 0 ModpathParticles-0132 # Data Set 12: Grid Layer Row Column LocalX LocalY LocalZ Label
     1     1     9     2 0.25 0.75 1 0 0 0 ModpathParticles-0133 # Data Set 12: Grid Layer Row Column LocalX LocalY LocalZ Label
     1     1     9     2 0.25 0.25 1 0 0 0 ModpathParticles-0134 # Data Set 12: Grid Layer Row Column LocalX LocalY LocalZ Label
     1     1     9     2 0.75 0.75 1 0 0 0 ModpathParticles-0135 # Data Set 12: Grid Layer Row Column LocalX LocalY LocalZ Label
     1     1     9     2 0.75 0.25 1 0 0 0 ModpathParticles-0136 # Data Set 12: Grid Layer Row Column LocalX LocalY LocalZ Label
     1     1    10     2 0.25 0.75 1 0 0 0 ModpathParticles-0137 # Data Set 12: Grid Layer Row Column LocalX LocalY LocalZ Label
     1     1    10     2 0.25 0.25 1 0 0 0 ModpathParticles-0138 # Data Set 12: Grid Layer Row Column LocalX LocalY LocalZ Label
     1     1    10     2 0.75 0.75 1 0 0 0 ModpathParticles-0139 # Data Set 12: Grid Layer Row Column LocalX LocalY LocalZ Label
     1     1    10     2 0.75 0.25 1 0 0 0 ModpathParticles-0140 # Data Set 12: Grid Layer Row Column LocalX LocalY LocalZ Label
     1     1    11     2 0.25 0.75 1 0 0 0 ModpathParticles-0141 # Data Set 12: Grid Layer Row Column LocalX LocalY LocalZ Label
     1     1    11     2 0.25 0.25 1 0 0 0 ModpathParticles-0142 # Data Set 12: Grid Layer Row Column LocalX LocalY LocalZ Label
     1     1    11     2 0.75 0.75 1 0 0 0 ModpathParticles-0143 # Data Set 12: Grid Layer Row Column LocalX LocalY LocalZ Label
     1     1    11     2 0.75 0.25 1 0 0 0 ModpathParticles-0144 # Data Set 12: Grid Layer Row Column LocalX LocalY LocalZ Label
     1     1    12     2 0.25 0.75 1 0 0 0 ModpathParticles-0145 # Data Set 12: Grid Layer Row Column LocalX LocalY LocalZ Label
     1     1    12     2 0.25 0.25 1 0 0 0 ModpathParticles-0146 # Data Set 12: Grid Layer Row Column LocalX LocalY LocalZ Label
     1     1    12     2 0.75 0.75 1 0 0 0 ModpathParticles-0147 # Data Set 12: Grid Layer Row Column LocalX LocalY LocalZ Label
     1     1    12     2 0.75 0.25 1 0 0 0 ModpathParticles-0148 # Data Set 12: Grid Layer Row Column LocalX LocalY LocalZ Label
     1     1    13     2 0.25 0.75 1 0 0 0 ModpathParticles-0149 # Data Set 12: Grid Layer Row Column LocalX LocalY LocalZ Label
     1     1    13     2 0.25 0.25 1 0 0 0 ModpathParticles-0150 # Data Set 12: Grid Layer Row Column LocalX LocalY LocalZ Label
     1     1    13     2 0.75 0.75 1 0 0 0 ModpathParticles-0151 # Data Set 12: Grid Layer Row Column LocalX LocalY LocalZ Label
     1     1    13     2 0.75 0.25 1 0 0 0 ModpathParticles-0152 # Data Set 12: Grid Layer Row Column LocalX LocalY LocalZ Label
     1     1    14     2 0.25 0.75 1 0 0 0 ModpathParticles-0153 # Data Set 12: Grid Layer Row Column LocalX LocalY LocalZ Label
     1     1    14     2 0.25 0.25 1 0 0 0 ModpathParticles-0154 # Data Set 12: Grid Layer Row Column LocalX LocalY LocalZ Label
     1     1    14     2 0.75 0.75 1 0 0 0 ModpathParticles-0155 # Data Set 12: Grid Layer Row Column LocalX LocalY LocalZ Label
     1     1    14     2 0.75 0.25 1 0 0 0 ModpathParticles-0156 # Data Set 12: Grid Layer Row Column LocalX LocalY LocalZ Label
     1     1    15     2 0.25 0.75 1 0 0 0 ModpathParticles-0157 # Data Set 12: Grid Layer Row Column LocalX LocalY LocalZ Label
     1     1    15     2 0.25 0.25 1 0 0 0 ModpathParticles-0158 # Data Set 12: Grid Layer Row Column LocalX LocalY LocalZ Label
     1     1    15     2 0.75 0.75 1 0 0 0 ModpathParticles-0159 # Data Set 12: Grid Layer Row Column LocalX LocalY LocalZ Label
     1     1    15     2 0.75 0.25 1 0 0 0 ModpathParticles-0160 # Data Set 12: Grid Layer Row Column LocalX LocalY LocalZ Label
     1     1    16     2 0.25 0.75 1 0 0 0 ModpathParticles-0161 # Data Set 12: Grid Layer Row Column LocalX LocalY LocalZ Label
     1     1    16     2 0.25 0.25 1 0 0 0 ModpathParticles-0162 # Data Set 12: Grid Layer Row Column LocalX LocalY LocalZ Label
     1     1    16     2 0.75 0.75 1 0 0 0 ModpathParticles-0163 # Data Set 12: Grid Layer Row Column LocalX LocalY LocalZ Label
     1     1    16     2 0.75 0.25 1 0 0 0 ModpathParticles-0164 # Data Set 12: Grid Layer Row Column LocalX LocalY LocalZ Label
     1     1    17     2 0.25 0.75 1 0 0 0 ModpathParticles-0165 # Data Set 12: Grid Layer Row Column LocalX LocalY LocalZ Label
     1     1    17     2 0.25 0.25 1 0 0 0 ModpathParticles-0166 # Data Set 12: Grid Layer Row Column LocalX LocalY LocalZ Label
     1     1    17     2 0.75 0.75 1 0 0 0 ModpathParticles-0167 # Data Set 12: Grid Layer Row Column LocalX LocalY LocalZ Label
     1     1    17     2 0.75 0.25 1 0 0 0 ModpathParticles-0168 # Data Set 12: Grid Layer Row Column LocalX LocalY LocalZ Label
     1     1    18     2 0.25 0.75 1 0 0 0 ModpathParticles-0169 # Data Set 12: Grid Layer Row Column LocalX LocalY LocalZ Label
     1     1    18     2 0.25 0.25 1 0 0 0 ModpathParticles-0170 # Data Set 12: Grid Layer Row Column LocalX LocalY LocalZ Label
     1     1    18     2 0.75 0.75 1 0 0 0 ModpathParticles-0171 # Data Set 12: Grid Layer Row Column LocalX LocalY LocalZ Label
     1     1    18     2 0.75 0.25 1 0 0 0 ModpathParticles-0172 # Data Set 12: Grid Layer Row Column LocalX LocalY LocalZ Label
     1     1    19     2 0.25 0.75 1 0 0 0 ModpathParticles-0173 # Data Set 12: Grid Layer Row Column LocalX LocalY LocalZ Label
     1     1    19     2 0.25 0.25 1 0 0 0 ModpathParticles-0174 # Data Set 12: Grid Layer Row Column LocalX LocalY LocalZ Label
     1     1    19     2 0.75 0.75 1 0 0 0 ModpathParticles-0175 # Data Set 12: Grid Layer Row Column LocalX LocalY LocalZ Label
     1     1    19     2 0.75 0.25 1 0 0 0 ModpathParticles-0176 # Data Set 12: Grid Layer Row Column LocalX LocalY LocalZ Label
     1     1    20     2 0.25 0.75 1 0 0 0 ModpathParticles-0177 # Data Set 12: Grid Layer Row Column LocalX LocalY LocalZ Label
     1     1    20     2 0.25 0.25 1 0 0 0 ModpathParticles-0178 # Data Set 12: Grid Layer Row Column LocalX LocalY LocalZ Label
     1     1    20     2 0.75 0.75 1 0 0 0 ModpathParticles-0179 # Data Set 12: Grid Layer Row Column LocalX LocalY LocalZ Label
     1     1    20     2 0.75 0.25 1 0 0 0 ModpathParticles-0180 # Data Set 12: Grid Layer Row Column LocalX LocalY LocalZ Label
     1     1    21     2 0.25 0.75 1 0 0 0 ModpathParticles-0181 # Data Set 12: Grid Layer Row Column LocalX LocalY LocalZ Label
     1     1    21     2 0.25 0.25 1 0 0 0 ModpathParticles-0182 # Data Set 12: Grid Layer Row Column LocalX LocalY LocalZ Label
     1     1    21     2 0.75 0.75 1 0 0 0 ModpathParticles-0183 # Data Set 12: Grid Layer Row Column LocalX LocalY LocalZ Label
     1     1    21     2 0.75 0.25 1 0 0 0 ModpathParticles-0184 # Data Set 12: Grid Layer Row Column LocalX LocalY LocalZ Label
     1     1    22     2 0.25 0.75 1 0 0 0 ModpathParticles-0185 # Data Set 12: Grid Layer Row Column LocalX LocalY LocalZ Label
     1     1    22     2 0.25 0.25 1 0 0 0 ModpathParticles-0186 # Data Set 12: Grid Layer Row Column LocalX LocalY LocalZ Label
     1     1    22     2 0.75 0.75 1 0 0 0 ModpathParticles-0187 # Data Set 12: Grid Layer Row Column LocalX LocalY LocalZ Label
     1     1    22     2 0.75 0.25 1 0 0 0 ModpathParticles-0188 # Data Set 12: Grid Layer Row Column LocalX LocalY LocalZ Label
     1     1    23     2 0.25 0.75 1 0 0 0 ModpathParticles-0189 # Data Set 12: Grid Layer Row Column LocalX LocalY LocalZ Label
     1     1    23     2 0.25 0.25 1 0 0 0 ModpathParticles-0190 # Data Set 12: Grid Layer Row Column LocalX LocalY LocalZ Label
     1     1    23     2 0.75 0.75 1 0 0 0 ModpathParticles-0191 # Data Set 12: Grid Layer Row Column LocalX LocalY LocalZ Label
     1     1    23     2 0.75 0.25 1 0 0 0 ModpathParticles-0192 # Data Set 12: Grid Layer Row Column LocalX LocalY LocalZ Label
     1     1    24     2 0.25 0.75 1 0 0 0 ModpathParticles-0193 # Data Set 12: Grid Layer Row Column LocalX LocalY LocalZ Label
     1     1    24     2 0.25 0.25 1 0 0 0 ModpathParticles-0194 # Data Set 12: Grid Layer Row Column LocalX LocalY LocalZ Label
     1     1    24     2 0.75 0.75 1 0 0 0 ModpathParticles-0195 # Data Set 12: Grid Layer Row Column LocalX LocalY LocalZ Label
     1     1    24     2 0.75 0.25 1 0 0 0 ModpathParticles-0196 # Data Set 12: Grid Layer Row Column LocalX LocalY LocalZ Label
     1     1    25     2 0.25 0.75 1 0 0 0 ModpathParticles-0197 # Data Set 12: Grid Layer Row Column LocalX LocalY LocalZ Label
     1     1    25     2 0.25 0.25 1 0 0 0 ModpathParticles-0198 # Data Set 12: Grid Layer Row Column LocalX LocalY LocalZ Label
     1     1    25     2 0.75 0.75 1 0 0 0 ModpathParticles-0199 # Data Set 12: Grid Layer Row Column LocalX LocalY LocalZ Label
     1     1    25     2 0.75 0.25 1 0 0 0 ModpathParticles-0200 # Data Set 12: Grid Layer Row Column LocalX LocalY LocalZ Label
     1     1     1     3 0.25 0.75 1 0 0 0 ModpathParticles-0201 # Data Set 12: Grid Layer Row Column LocalX LocalY LocalZ Label
     1     1     1     3 0.25 0.25 1 0 0 0 ModpathParticles-0202 # Data Set 12: Grid Layer Row Column LocalX LocalY LocalZ Label
     1     1     1     3 0.75 0.75 1 0 0 0 ModpathParticles-0203 # Data Set 12: Grid Layer Row Column LocalX LocalY LocalZ Label
     1     1     1     3 0.75 0.25 1 0 0 0 ModpathParticles-0204 # Data Set 12: Grid Layer Row Column LocalX LocalY LocalZ Label
     1     1     2     3 0.25 0.75 1 0 0 0 ModpathParticles-0205 # Data Set 12: Grid Layer Row Column LocalX LocalY LocalZ Label
     1     1     2     3 0.25 0.25 1 0 0 0 ModpathParticles-0206 # Data Set 12: Grid Layer Row Column LocalX LocalY LocalZ Label
     1     1     2     3 0.75 0.75 1 0 0 0 ModpathParticles-0207 # Data Set 12: Grid Layer Row Column LocalX LocalY LocalZ Label
     1     1     2     3 0.75 0.25 1 0 0 0 ModpathParticles-0208 # Data Set 12: Grid Layer Row Column LocalX LocalY LocalZ Label
     1     1     3     3 0.25 0.75 1 0 0 0 ModpathParticles-0209 # Data Set 12: Grid Layer Row Column LocalX LocalY LocalZ Label
     1     1     3     3 0.25 0.25 1 0 0 0 ModpathParticles-0210 # Data Set 12: Grid Layer Row Column LocalX LocalY LocalZ Label
     1     1     3     3 0.75 0.75 1 0 0 0 ModpathParticles-0211 # Data Set 12: Grid Layer Row Column LocalX LocalY LocalZ Label
     1     1     3     3 0.75 0.25 1 0 0 0 ModpathParticles-0212 # Data Set 12: Grid Layer Row Column LocalX LocalY LocalZ Label
     1     1     4     3 0.25 0.75 1 0 0 0 ModpathParticles-0213 # Data Set 12: Grid Layer Row Column LocalX LocalY LocalZ Label
     1     1     4     3 0.25 0.25 1 0 0 0 ModpathParticles-0214 # Data Set 12: Grid Layer Row Column LocalX LocalY LocalZ Label
     1     1     4     3 0.75 0.75 1 0 0 0 ModpathParticles-0215 # Data Set 12: Grid Layer Row Column LocalX LocalY LocalZ Label
     1     1     4     3 0.75 0.25 1 0 0 0 ModpathParticles-0216 # Data Set 12: Grid Layer Row Column LocalX LocalY LocalZ Label
     1     1     5     3 0.25 0.75 1 0 0 0 ModpathParticles-0217 # Data Set 12: Grid Layer Row Column LocalX LocalY LocalZ Label
     1     1     5     3 0.25 0.25 1 0 0 0 ModpathParticles-0218 # Data Set 12: Grid Layer Row Column LocalX LocalY LocalZ Label
     1     1     5     3 0.75 0.75 1 0 0 0 ModpathParticles-0219 # Data Set 12: Grid Layer Row Column LocalX LocalY LocalZ Label
     1     1     5     3 0.75 0.25 1 0 0 0 ModpathParticles-0220 # Data Set 12: Grid Layer Row Column LocalX LocalY LocalZ Label
     1     1     6     3 0.25 0.75 1 0 0 0 ModpathParticles-0221 # Data Set 12: Grid Layer Row Column LocalX LocalY LocalZ Label
     1     1     6     3 0.25 0.25 1 0 0 0 ModpathParticles-0222 # Data Set 12: Grid Layer Row Column LocalX LocalY LocalZ Label
     1     1     6     3 0.75 0.75 1 0 0 0 ModpathParticles-0223 # Data Set 12: Grid Layer Row Column LocalX LocalY LocalZ Label
     1     1     6     3 0.75 0.25 1 0 0 0 ModpathParticles-0224 # Data Set 12: Grid Layer Row Column LocalX LocalY LocalZ Label
     1     1     7     3 0.25 0.75 1 0 0 0 ModpathParticles-0225 # Data Set 12: Grid Layer Row Column LocalX LocalY LocalZ Label
     1     1     7     3 0.25 0.25 1 0 0 0 ModpathParticles-0226 # Data Set 12: Grid Layer Row Column LocalX LocalY LocalZ Label
     1     1     7     3 0.75 0.75 1 0 0 0 ModpathParticles-0227 # Data Set 12: Grid Layer Row Column LocalX LocalY LocalZ Label
     1     1     7     3 0.75 0.25 1 0 0 0 ModpathParticles-0228 # Data Set 12: Grid Layer Row Column LocalX LocalY LocalZ Label
     1     1     8     3 0.25 0.75 1 0 0 0 ModpathParticles-0229 # Data Set 12: Grid Layer Row Column LocalX LocalY LocalZ Label
     1     1     8     3 0.25 0.25 1 0 0 0 ModpathParticles-0230 # Data Set 12: Grid Layer Row Column LocalX LocalY LocalZ Label