# Name File for MODFLOW created on 12/14/2015 by ModelMuse
LIST             11 MP6_Test3.lst REPLACE
DATA(BINARY)      9 MP6_Test3.cbc REPLACE
DIS              12 MP6_Test3.dis OLD
BAS6             13 MP6_Test3.bas OLD
OC               39 MP6_Test3.oc OLD
DATA(BINARY)     37 MP6_Test3.bhd REPLACE
DATA             38 MP6_Test3.fdn REPLACE
PCG              18 MP6_Test3.pcg OLD
LPF              14 MP6_Test3.lpf OLD
WEL              20 MP6_Test3.wel OLD
RIV              21 MP6_Test3.riv OLD
RCH              24 MP6_Test3.rch OLD
