# Name File for MODFLOW created on 12/14/2015 by ModelMuse
LIST             11 MP6_Test7.lst REPLACE
DATA(BINARY)      9 MP6_Test7.cbc REPLACE
DIS              12 MP6_Test7.dis OLD
BAS6             13 MP6_Test7.bas OLD
OC               39 MP6_Test7.oc OLD
DATA(BINARY)     37 MP6_Test7.bhd REPLACE
DATA             38 MP6_Test7.fdn REPLACE
PCG              18 MP6_Test7.pcg OLD
LPF              14 MP6_Test7.lpf OLD
WEL              20 MP6_Test7.wel OLD
RIV              21 MP6_Test7.riv OLD
RCH              24 MP6_Test7.rch OLD
