# Discretization File created on 5/6/2024 by ModelMuse version 5.2.0.9.
# Upper left corner: (0, 0)
# Lower left corner: (0, -10000)
# Upper right corner: (10000, 0)
# Lower right corner: (10000, -10000)
# Grid angle (in degrees counterclockwise): 0
# Number of active cells = 3125.
BEGIN OPTIONS
  LENGTH_UNITS FEET
  XORIGIN  0.000000000000E+000 
  YORIGIN -1.000000000000E+004 
  ANGROT  0.000000000000E+000 
END OPTIONS

BEGIN DIMENSIONS
  NLAY      5
  NROW     25
  NCOL     25
END DIMENSIONS


BEGIN GRIDDATA
  DELR IPRN    12
    CONSTANT   4.000000000000E+002  # DELR

  DELC IPRN    12
    CONSTANT   4.000000000000E+002  # DELC

  TOP LAYERED IPRN    12
    CONSTANT   4.000000000000E+002  # TOP

  BOTM LAYERED IPRN    12
    CONSTANT   2.700000000000E+002  # BOTM, Layer 1

    CONSTANT   2.200000000000E+002  # BOTM, Layer 2

    CONSTANT   2.000000000000E+002  # BOTM, Layer 3

    CONSTANT   1.000000000000E+002  # BOTM, Layer 4

    CONSTANT   0.000000000000E+000  # BOTM, Layer 5

  IDOMAIN LAYERED IPRN     5
    CONSTANT      1 # IDOMAIN 1
    CONSTANT      1 # IDOMAIN 2
    CONSTANT      1 # IDOMAIN 3
    CONSTANT      1 # IDOMAIN 4
    CONSTANT      1 # IDOMAIN 5
END GRIDDATA

