# MODPATH Basic Data file file created on 5/6/2024 by ModelMuse version 5.2.0.9.
     1 # Data Set 2: DefaultIFaceCount
        RECHARGE
     6
CONSTANT     2.500000000000E-001 
CONSTANT     2.500000000000E-001 
CONSTANT     2.500000000000E-001 
CONSTANT     2.500000000000E-001 
CONSTANT     2.500000000000E-001 
