# STO: Storage package file created on 5/6/2024 by ModelMuse version 5.2.0.9.
BEGIN OPTIONS
    SAVE_FLOWS
END OPTIONS

BEGIN GRIDDATA
  ICONVERT LAYERED IPRN     5
    CONSTANT      1 # ICONVERT 1
    CONSTANT      0 # ICONVERT 2
    CONSTANT      0 # ICONVERT 3
    CONSTANT      0 # ICONVERT 4
    CONSTANT      0 # ICONVERT 5
  SS LAYERED IPRN    12
    CONSTANT   9.999999700000E-005  # SS 1

    CONSTANT   9.999999700000E-005  # SS 2

    CONSTANT   9.999999700000E-005  # SS 3

    CONSTANT   9.999999700000E-005  # SS 4

    CONSTANT   9.999999700000E-005  # SS 5

  SY LAYERED IPRN    12
    CONSTANT   2.000000000000E-001  # SY 1

    CONSTANT   0.000000000000E+000  # SY 2

    CONSTANT   0.000000000000E+000  # SY 3

    CONSTANT   0.000000000000E+000  # SY 4

    CONSTANT   0.000000000000E+000  # SY 5

END GRIDDATA

BEGIN PERIOD      1
  STEADY-STATE
END PERIOD 

BEGIN PERIOD      2
  TRANSIENT
END PERIOD 

BEGIN PERIOD      3
  STEADY-STATE
END PERIOD 

