# RCH: Recharge package file created on 5/6/2024 by ModelMuse version 5.2.0.9.
BEGIN OPTIONS
  AUXILIARY IFACE
  PRINT_INPUT
    SAVE_FLOWS
    BOUNDNAMES
  FIXED_CELL
END OPTIONS

BEGIN DIMENSIONS
  MAXBOUND   625
END DIMENSIONS

BEGIN PERIOD      1
     1    25    25  4.999999900000E-003      0 'ImportedRecharge' 
     1    25    24  4.999999900000E-003      0 'ImportedRecharge' 
     1    25    23  4.999999900000E-003      0 'ImportedRecharge' 
     1    25    22  4.999999900000E-003      0 'ImportedRecharge' 
     1    25    21  4.999999900000E-003      0 'ImportedRecharge' 
     1    25    20  4.999999900000E-003      0 'ImportedRecharge' 
     1    25    19  4.999999900000E-003      0 'ImportedRecharge' 
     1    25    18  4.999999900000E-003      0 'ImportedRecharge' 
     1    25    17  4.999999900000E-003      0 'ImportedRecharge' 
     1    25    16  4.999999900000E-003      0 'ImportedRecharge' 
     1    25    15  4.999999900000E-003      0 'ImportedRecharge' 
     1    25    14  4.999999900000E-003      0 'ImportedRecharge' 
     1    25    13  4.999999900000E-003      0 'ImportedRecharge' 
     1    25    12  4.999999900000E-003      0 'ImportedRecharge' 
     1    25    11  4.999999900000E-003      0 'ImportedRecharge' 
     1    25    10  4.999999900000E-003      0 'ImportedRecharge' 
     1    25     9  4.999999900000E-003      0 'ImportedRecharge' 
     1    25     8  4.999999900000E-003      0 'ImportedRecharge' 
     1    25     7  4.999999900000E-003      0 'ImportedRecharge' 
     1    25     6  4.999999900000E-003      0 'ImportedRecharge' 
     1    25     5  4.999999900000E-003      0 'ImportedRecharge' 
     1    25     4  4.999999900000E-003      0 'ImportedRecharge' 
     1    25     3  4.999999900000E-003      0 'ImportedRecharge' 
     1    25     2  4.999999900000E-003      0 'ImportedRecharge' 
     1    25     1  4.999999900000E-003      0 'ImportedRecharge' 
     1    24    25  4.999999900000E-003      0 'ImportedRecharge' 
     1    24    24  4.999999900000E-003      0 'ImportedRecharge' 
     1    24    23  4.999999900000E-003      0 'ImportedRecharge' 
     1    24    22  4.999999900000E-003      0 'ImportedRecharge' 
     1    24    21  4.999999900000E-003      0 'ImportedRecharge' 
     1    24    20  4.999999900000E-003      0 'ImportedRecharge' 
     1    24    19  4.999999900000E-003      0 'ImportedRecharge' 
     1    24    18  4.999999900000E-003      0 'ImportedRecharge' 
     1    24    17  4.999999900000E-003      0 'ImportedRecharge' 
     1    24    16  4.999999900000E-003      0 'ImportedRecharge' 
     1    24    15  4.999999900000E-003      0 'ImportedRecharge' 
     1    24    14  4.999999900000E-003      0 'ImportedRecharge' 
     1    24    13  4.999999900000E-003      0 'ImportedRecharge' 
     1    24    12  4.999999900000E-003      0 'ImportedRecharge' 
     1    24    11  4.999999900000E-003      0 'ImportedRecharge' 
     1    24    10  4.999999900000E-003      0 'ImportedRecharge' 
     1    24     9  4.999999900000E-003      0 'ImportedRecharge' 
     1    24     8  4.999999900000E-003      0 'ImportedRecharge' 
     1    24     7  4.999999900000E-003      0 'ImportedRecharge' 
     1    24     6  4.999999900000E-003      0 'ImportedRecharge' 
     1    24     5  4.999999900000E-003      0 'ImportedRecharge' 
     1    24     4  4.999999900000E-003      0 'ImportedRecharge' 
     1    24     3  4.999999900000E-003      0 'ImportedRecharge' 
     1    24     2  4.999999900000E-003      0 'ImportedRecharge' 
     1    24     1  4.999999900000E-003      0 'ImportedRecharge' 
     1    23    25  4.999999900000E-003      0 'ImportedRecharge' 
     1    23    24  4.999999900000E-003      0 'ImportedRecharge' 
     1    23    23  4.999999900000E-003      0 'ImportedRecharge' 
     1    23    22  4.999999900000E-003      0 'ImportedRecharge' 
     1    23    21  4.999999900000E-003      0 'ImportedRecharge' 
     1    23    20  4.999999900000E-003      0 'ImportedRecharge' 
     1    23    19  4.999999900000E-003      0 'ImportedRecharge' 
     1    23    18  4.999999900000E-003      0 'ImportedRecharge' 
     1    23    17  4.999999900000E-003      0 'ImportedRecharge' 
     1    23    16  4.999999900000E-003      0 'ImportedRecharge' 
     1    23    15  4.999999900000E-003      0 'ImportedRecharge' 
     1    23    14  4.999999900000E-003      0 'ImportedRecharge' 
     1    23    13  4.999999900000E-003      0 'ImportedRecharge' 
     1    23    12  4.999999900000E-003      0 'ImportedRecharge' 
     1    23    11  4.999999900000E-003      0 'ImportedRecharge' 
     1    23    10  4.999999900000E-003      0 'ImportedRecharge' 
     1    23     9  4.999999900000E-003      0 'ImportedRecharge' 
     1    23     8  4.999999900000E-003      0 'ImportedRecharge' 
     1    23     7  4.999999900000E-003      0 'ImportedRecharge' 
     1    23     6  4.999999900000E-003      0 'ImportedRecharge' 
     1    23     5  4.999999900000E-003      0 'ImportedRecharge' 
     1    23     4  4.999999900000E-003      0 'ImportedRecharge' 
     1    23     3  4.999999900000E-003      0 'ImportedRecharge' 
     1    23     2  4.999999900000E-003      0 'ImportedRecharge' 
     1    23     1  4.999999900000E-003      0 'ImportedRecharge' 
     1    22    25  4.999999900000E-003      0 'ImportedRecharge' 
     1    22    24  4.999999900000E-003      0 'ImportedRecharge' 
     1    22    23  4.999999900000E-003      0 'ImportedRecharge' 
     1    22    22  4.999999900000E-003      0 'ImportedRecharge' 
     1    22    21  4.999999900000E-003      0 'ImportedRecharge' 
     1    22    20  4.999999900000E-003      0 'ImportedRecharge' 
     1    22    19  4.999999900000E-003      0 'ImportedRecharge' 
     1    22    18  4.999999900000E-003      0 'ImportedRecharge' 
     1    22    17  4.999999900000E-003      0 'ImportedRecharge' 
     1    22    16  4.999999900000E-003      0 'ImportedRecharge' 
     1    22    15  4.999999900000E-003      0 'ImportedRecharge' 
     1    22    14  4.999999900000E-003      0 'ImportedRecharge' 
     1    22    13  4.999999900000E-003      0 'ImportedRecharge' 
     1    22    12  4.999999900000E-003      0 'ImportedRecharge' 
     1    22    11  4.999999900000E-003      0 'ImportedRecharge' 
     1    22    10  4.999999900000E-003      0 'ImportedRecharge' 
     1    22     9  4.999999900000E-003      0 'ImportedRecharge' 
     1    22     8  4.999999900000E-003      0 'ImportedRecharge' 
     1    22     7  4.999999900000E-003      0 'ImportedRecharge' 
     1    22     6  4.999999900000E-003      0 'ImportedRecharge' 
     1    22     5  4.999999900000E-003      0 'ImportedRecharge' 
     1    22     4  4.999999900000E-003      0 'ImportedRecharge' 
     1    22     3  4.999999900000E-003      0 'ImportedRecharge' 
     1    22     2  4.999999900000E-003      0 'ImportedRecharge' 
     1    22     1  4.999999900000E-003      0 'ImportedRecharge' 
     1    21    25  4.999999900000E-003      0 'ImportedRecharge' 
     1    21    24  4.999999900000E-003      0 'ImportedRecharge' 
     1    21    23  4.999999900000E-003      0 'ImportedRecharge' 
     1    21    22  4.999999900000E-003      0 'ImportedRecharge' 
     1    21    21  4.999999900000E-003      0 'ImportedRecharge' 
     1    21    20  4.999999900000E-003      0 'ImportedRecharge' 
     1    21    19  4.999999900000E-003      0 'ImportedRecharge' 
     1    21    18  4.999999900000E-003      0 'ImportedRecharge' 
     1    21    17  4.999999900000E-003      0 'ImportedRecharge' 
     1    21    16  4.999999900000E-003      0 'ImportedRecharge' 
     1    21    15  4.999999900000E-003      0 'ImportedRecharge' 
     1    21    14  4.999999900000E-003      0 'ImportedRecharge' 
     1    21    13  4.999999900000E-003      0 'ImportedRecharge' 
     1    21    12  4.999999900000E-003      0 'ImportedRecharge' 
     1    21    11  4.999999900000E-003      0 'ImportedRecharge' 
     1    21    10  4.999999900000E-003      0 'ImportedRecharge' 
     1    21     9  4.999999900000E-003      0 'ImportedRecharge' 
     1    21     8  4.999999900000E-003      0 'ImportedRecharge' 
     1    21     7  4.999999900000E-003      0 'ImportedRecharge' 
     1    21     6  4.999999900000E-003      0 'ImportedRecharge' 
     1    21     5  4.999999900000E-003      0 'ImportedRecharge' 
     1    21     4  4.999999900000E-003      0 'ImportedRecharge' 
     1    21     3  4.999999900000E-003      0 'ImportedRecharge' 
     1    21     2  4.999999900000E-003      0 'ImportedRecharge' 
     1    21     1  4.999999900000E-003      0 'ImportedRecharge' 
     1    20    25  4.999999900000E-003      0 'ImportedRecharge' 
     1    20    24  4.999999900000E-003      0 'ImportedRecharge' 
     1    20    23  4.999999900000E-003      0 'ImportedRecharge' 
     1    20    22  4.999999900000E-003      0 'ImportedRecharge' 
     1    20    21  4.999999900000E-003      0 'ImportedRecharge' 
     1    20    20  4.999999900000E-003      0 'ImportedRecharge' 
     1    20    19  4.999999900000E-003      0 'ImportedRecharge' 
     1    20    18  4.999999900000E-003      0 'ImportedRecharge' 
     1    20    17  4.999999900000E-003      0 'ImportedRecharge' 
     1    20    16  4.999999900000E-003      0 'ImportedRecharge' 
     1    20    15  4.999999900000E-003      0 'ImportedRecharge' 
     1    20    14  4.999999900000E-003      0 'ImportedRecharge' 
     1    20    13  4.999999900000E-003      0 'ImportedRecharge' 
     1    20    12  4.999999900000E-003      0 'ImportedRecharge' 
     1    20    11  4.999999900000E-003      0 'ImportedRecharge' 
     1    20    10  4.999999900000E-003      0 'ImportedRecharge' 
     1    20     9  4.999999900000E-003      0 'ImportedRecharge' 
     1    20     8  4.999999900000E-003      0 'ImportedRecharge' 
     1    20     7  4.999999900000E-003      0 'ImportedRecharge' 
     1    20     6  4.999999900000E-003      0 'ImportedRecharge' 
     1    20     5  4.999999900000E-003      0 'ImportedRecharge' 
     1    20     4  4.999999900000E-003      0 'ImportedRecharge' 
     1    20     3  4.999999900000E-003      0 'ImportedRecharge' 
     1    20     2  4.999999900000E-003      0 'ImportedRecharge' 
     1    20     1  4.999999900000E-003      0 'ImportedRecharge' 
     1    19    25  4.999999900000E-003      0 'ImportedRecharge' 
     1    19    24  4.999999900000E-003      0 'ImportedRecharge' 
     1    19    23  4.999999900000E-003      0 'ImportedRecharge' 
     1    19    22  4.999999900000E-003      0 'ImportedRecharge' 
     1    19    21  4.999999900000E-003      0 'ImportedRecharge' 
     1    19    20  4.999999900000E-003      0 'ImportedRecharge' 
     1    19    19  4.999999900000E-003      0 'ImportedRecharge' 
     1    19    18  4.999999900000E-003      0 'ImportedRecharge' 
     1    19    17  4.999999900000E-003      0 'ImportedRecharge' 
     1    19    16  4.999999900000E-003      0 'ImportedRecharge' 
     1    19    15  4.999999900000E-003      0 'ImportedRecharge' 
     1    19    14  4.999999900000E-003      0 'ImportedRecharge' 
     1    19    13  4.999999900000E-003      0 'ImportedRecharge' 
     1    19    12  4.999999900000E-003      0 'ImportedRecharge' 
     1    19    11  4.999999900000E-003      0 'ImportedRecharge' 
     1    19    10  4.999999900000E-003      0 'ImportedRecharge' 
     1    19     9  4.999999900000E-003      0 'ImportedRecharge' 
     1    19     8  4.999999900000E-003      0 'ImportedRecharge' 
     1    19     7  4.999999900000E-003      0 'ImportedRecharge' 
     1    19     6  4.999999900000E-003      0 'ImportedRecharge' 
     1    19     5  4.999999900000E-003      0 'ImportedRecharge' 
     1    19     4  4.999999900000E-003      0 'ImportedRecharge' 
     1    19     3  4.999999900000E-003      0 'ImportedRecharge' 
     1    19     2  4.999999900000E-003      0 'ImportedRecharge' 
     1    19     1  4.999999900000E-003      0 'ImportedRecharge' 
     1    18    25  4.999999900000E-003      0 'ImportedRecharge' 
     1    18    24  4.999999900000E-003      0 'ImportedRecharge' 
     1    18    23  4.999999900000E-003      0 'ImportedRecharge' 
     1    18    22  4.999999900000E-003      0 'ImportedRecharge' 
     1    18    21  4.999999900000E-003      0 'ImportedRecharge' 
     1    18    20  4.999999900000E-003      0 'ImportedRecharge' 
     1    18    19  4.999999900000E-003      0 'ImportedRecharge' 
     1    18    18  4.999999900000E-003      0 'ImportedRecharge' 
     1    18    17  4.999999900000E-003      0 'ImportedRecharge' 
     1    18    16  4.999999900000E-003      0 'ImportedRecharge' 
     1    18    15  4.999999900000E-003      0 'ImportedRecharge' 
     1    18    14  4.999999900000E-003      0 'ImportedRecharge' 
     1    18    13  4.999999900000E-003      0 'ImportedRecharge' 
     1    18    12  4.999999900000E-003      0 'ImportedRecharge' 
     1    18    11  4.999999900000E-003      0 'ImportedRecharge' 
     1    18    10  4.999999900000E-003      0 'ImportedRecharge' 
     1    18     9  4.999999900000E-003      0 'ImportedRecharge' 
     1    18     8  4.999999900000E-003      0 'ImportedRecharge' 
     1    18     7  4.999999900000E-003      0 'ImportedRecharge' 
     1    18     6  4.999999900000E-003      0 'ImportedRecharge' 
     1    18     5  4.999999900000E-003      0 'ImportedRecharge' 
     1    18     4  4.999999900000E-003      0 'ImportedRecharge' 
     1    18     3  4.999999900000E-003      0 'ImportedRecharge' 
     1    18     2  4.999999900000E-003      0 'ImportedRecharge' 
     1    18     1  4.999999900000E-003      0 'ImportedRecharge' 
     1    17    25  4.999999900000E-003      0 'ImportedRecharge' 
     1    17    24  4.999999900000E-003      0 'ImportedRecharge' 
     1    17    23  4.999999900000E-003      0 'ImportedRecharge' 
     1    17    22  4.999999900000E-003      0 'ImportedRecharge' 
     1    17    21  4.999999900000E-003      0 'ImportedRecharge' 
     1    17    20  4.999999900000E-003      0 'ImportedRecharge' 
     1    17    19  4.999999900000E-003      0 'ImportedRecharge' 
     1    17    18  4.999999900000E-003      0 'ImportedRecharge' 
     1    17    17  4.999999900000E-003      0 'ImportedRecharge' 
     1    17    16  4.999999900000E-003      0 'ImportedRecharge' 
     1    17    15  4.999999900000E-003      0 'ImportedRecharge' 
     1    17    14  4.999999900000E-003      0 'ImportedRecharge' 
     1    17    13  4.999999900000E-003      0 'ImportedRecharge' 
     1    17    12  4.999999900000E-003      0 'ImportedRecharge' 
     1    17    11  4.999999900000E-003      0 'ImportedRecharge' 
     1    17    10  4.999999900000E-003      0 'ImportedRecharge' 
     1    17     9  4.999999900000E-003      0 'ImportedRecharge' 
     1    17     8  4.999999900000E-003      0 'ImportedRecharge' 
     1    17     7  4.999999900000E-003      0 'ImportedRecharge' 
     1    17     6  4.999999900000E-003      0 'ImportedRecharge' 
     1    17     5  4.999999900000E-003      0 'ImportedRecharge' 
     1    17     4  4.999999900000E-003      0 'ImportedRecharge' 
     1    17     3  4.999999900000E-003      0 'ImportedRecharge' 
     1    17     2  4.999999900000E-003      0 'ImportedRecharge' 
     1    17     1  4.999999900000E-003      0 'ImportedRecharge' 
     1    16    25  4.999999900000E-003      0 'ImportedRecharge' 
     1    16    24  4.999999900000E-003      0 'ImportedRecharge' 
     1    16    23  4.999999900000E-003      0 'ImportedRecharge' 
     1    16    22  4.999999900000E-003      0 'ImportedRecharge' 
     1    16    21  4.999999900000E-003      0 'ImportedRecharge' 
     1    16    20  4.999999900000E-003      0 'ImportedRecharge' 
     1    16    19  4.999999900000E-003      0 'ImportedRecharge' 
     1    16    18  4.999999900000E-003      0 'ImportedRecharge' 
     1    16    17  4.999999900000E-003      0 'ImportedRecharge' 
     1    16    16  4.999999900000E-003      0 'ImportedRecharge' 
     1    16    15  4.999999900000E-003      0 'ImportedRecharge' 
     1    16    14  4.999999900000E-003      0 'ImportedRecharge' 
     1    16    13  4.999999900000E-003      0 'ImportedRecharge' 
     1    16    12  4.999999900000E-003      0 'ImportedRecharge' 
     1    16    11  4.999999900000E-003      0 'ImportedRecharge' 
     1    16    10  4.999999900000E-003      0 'ImportedRecharge' 
     1    16     9  4.999999900000E-003      0 'ImportedRecharge' 
     1    16     8  4.999999900000E-003      0 'ImportedRecharge' 
     1    16     7  4.999999900000E-003      0 'ImportedRecharge' 
     1    16     6  4.999999900000E-003      0 'ImportedRecharge' 
     1    16     5  4.999999900000E-003      0 'ImportedRecharge' 
     1    16     4  4.999999900000E-003      0 'ImportedRecharge' 
     1    16     3  4.999999900000E-003      0 'ImportedRecharge' 
     1    16     2  4.999999900000E-003      0 'ImportedRecharge' 
     1    16     1  4.999999900000E-003      0 'ImportedRecharge' 
     1    15    25  4.999999900000E-003      0 'ImportedRecharge' 
     1    15    24  4.999999900000E-003      0 'ImportedRecharge' 
     1    15    23  4.999999900000E-003      0 'ImportedRecharge' 
     1    15    22  4.999999900000E-003      0 'ImportedRecharge' 
     1    15    21  4.999999900000E-003      0 'ImportedRecharge' 
     1    15    20  4.999999900000E-003      0 'ImportedRecharge' 
     1    15    19  4.999999900000E-003      0 'ImportedRecharge' 
     1    15    18  4.999999900000E-003      0 'ImportedRecharge' 
     1    15    17  4.999999900000E-003      0 'ImportedRecharge' 
     1    15    16  4.999999900000E-003      0 'ImportedRecharge' 
     1    15    15  4.999999900000E-003      0 'ImportedRecharge' 
     1    15    14  4.999999900000E-003      0 'ImportedRecharge' 
     1    15    13  4.999999900000E-003      0 'ImportedRecharge' 
     1    15    12  4.999999900000E-003      0 'ImportedRecharge' 
     1    15    11  4.999999900000E-003      0 'ImportedRecharge' 
     1    15    10  4.999999900000E-003      0 'ImportedRecharge' 
     1    15     9  4.999999900000E-003      0 'ImportedRecharge' 
     1    15     8  4.999999900000E-003      0 'ImportedRecharge' 
     1    15     7  4.999999900000E-003      0 'ImportedRecharge' 
     1    15     6  4.999999900000E-003      0 'ImportedRecharge' 
     1    15     5  4.999999900000E-003      0 'ImportedRecharge' 
     1    15     4  4.999999900000E-003      0 'ImportedRecharge' 
     1    15     3  4.999999900000E-003      0 'ImportedRecharge' 
     1    15     2  4.999999900000E-003      0 'ImportedRecharge' 
     1    15     1  4.999999900000E-003      0 'ImportedRecharge' 
     1    14    25  4.999999900000E-003      0 'ImportedRecharge' 
     1    14    24  4.999999900000E-003      0 'ImportedRecharge' 
     1    14    23  4.999999900000E-003      0 'ImportedRecharge' 
     1    14    22  4.999999900000E-003      0 'ImportedRecharge' 
     1    14    21  4.999999900000E-003      0 'ImportedRecharge' 
     1    14    20  4.999999900000E-003      0 'ImportedRecharge' 
     1    14    19  4.999999900000E-003      0 'ImportedRecharge' 
     1    14    18  4.999999900000E-003      0 'ImportedRecharge' 
     1    14    17  4.999999900000E-003      0 'ImportedRecharge' 
     1    14    16  4.999999900000E-003      0 'ImportedRecharge' 
     1    14    15  4.999999900000E-003      0 'ImportedRecharge' 
     1    14    14  4.999999900000E-003      0 'ImportedRecharge' 
     1    14    13  4.999999900000E-003      0 'ImportedRecharge' 
     1    14    12  4.999999900000E-003      0 'ImportedRecharge' 
     1    14    11  4.999999900000E-003      0 'ImportedRecharge' 
     1    14    10  4.999999900000E-003      0 'ImportedRecharge' 
     1    14     9  4.999999900000E-003      0 'ImportedRecharge' 
     1    14     8  4.999999900000E-003      0 'ImportedRecharge' 
     1    14     7  4.999999900000E-003      0 'ImportedRecharge' 
     1    14     6  4.999999900000E-003      0 'ImportedRecharge' 
     1    14     5  4.999999900000E-003      0 'ImportedRecharge' 
     1    14     4  4.999999900000E-003      0 'ImportedRecharge' 
     1    14     3  4.999999900000E-003      0 'ImportedRecharge' 
     1    14     2  4.999999900000E-003      0 'ImportedRecharge' 
     1    14     1  4.999999900000E-003      0 'ImportedRecharge' 
     1    13    25  4.999999900000E-003      0 'ImportedRecharge' 
     1    13    24  4.999999900000E-003      0 'ImportedRecharge' 
     1    13    23  4.999999900000E-003      0 'ImportedRecharge' 
     1    13    22  4.999999900000E-003      0 'ImportedRecharge' 
     1    13    21  4.999999900000E-003      0 'ImportedRecharge' 
     1    13    20  4.999999900000E-003      0 'ImportedRecharge' 
     1    13    19  4.999999900000E-003      0 'ImportedRecharge' 
     1    13    18  4.999999900000E-003      0 'ImportedRecharge' 
     1    13    17  4.999999900000E-003      0 'ImportedRecharge' 
     1    13    16  4.999999900000E-003      0 'ImportedRecharge' 
     1    13    15  4.999999900000E-003      0 'ImportedRecharge' 
     1    13    14  4.999999900000E-003      0 'ImportedRecharge' 
     1    13    13  4.999999900000E-003      0 'ImportedRecharge' 
     1    13    12  4.999999900000E-003      0 'ImportedRecharge' 
     1    13    11  4.999999900000E-003      0 'ImportedRecharge' 
     1    13    10  4.999999900000E-003      0 'ImportedRecharge' 
     1    13     9  4.999999900000E-003      0 'ImportedRecharge' 
     1    13     8  4.999999900000E-003      0 'ImportedRecharge' 
     1    13     7  4.999999900000E-003      0 'ImportedRecharge' 
     1    13     6  4.999999900000E-003      0 'ImportedRecharge' 
     1    13     5  4.999999900000E-003      0 'ImportedRecharge' 
     1    13     4  4.999999900000E-003      0 'ImportedRecharge' 
     1    13     3  4.999999900000E-003      0 'ImportedRecharge' 
     1    13     2  4.999999900000E-003      0 'ImportedRecharge' 
     1    13     1  4.999999900000E-003      0 'ImportedRecharge' 
     1    12    25  4.999999900000E-003      0 'ImportedRecharge' 
     1    12    24  4.999999900000E-003      0 'ImportedRecharge' 
     1    12    23  4.999999900000E-003      0 'ImportedRecharge' 
     1    12    22  4.999999900000E-003      0 'ImportedRecharge' 
     1    12    21  4.999999900000E-003      0 'ImportedRecharge' 
     1    12    20  4.999999900000E-003      0 'ImportedRecharge' 
     1    12    19  4.999999900000E-003      0 'ImportedRecharge' 
     1    12    18  4.999999900000E-003      0 'ImportedRecharge' 
     1    12    17  4.999999900000E-003      0 'ImportedRecharge' 
     1    12    16  4.999999900000E-003      0 'ImportedRecharge' 
     1    12    15  4.999999900000E-003      0 'ImportedRecharge' 
     1    12    14  4.999999900000E-003      0 'ImportedRecharge' 
     1    12    13  4.999999900000E-003      0 'ImportedRecharge' 
     1    12    12  4.999999900000E-003      0 'ImportedRecharge' 
     1    12    11  4.999999900000E-003      0 'ImportedRecharge' 
     1    12    10  4.999999900000E-003      0 'ImportedRecharge' 
     1    12     9  4.999999900000E-003      0 'ImportedRecharge' 
     1    12     8  4.999999900000E-003      0 'ImportedRecharge' 
     1    12     7  4.999999900000E-003      0 'ImportedRecharge' 
     1    12     6  4.999999900000E-003      0 'ImportedRecharge' 
     1    12     5  4.999999900000E-003      0 'ImportedRecharge' 
     1    12     4  4.999999900000E-003      0 'ImportedRecharge' 
     1    12     3  4.999999900000E-003      0 'ImportedRecharge' 
     1    12     2  4.999999900000E-003      0 'ImportedRecharge' 
     1    12     1  4.999999900000E-003      0 'ImportedRecharge' 
     1    11    25  4.999999900000E-003      0 'ImportedRecharge' 
     1    11    24  4.999999900000E-003      0 'ImportedRecharge' 
     1    11    23  4.999999900000E-003      0 'ImportedRecharge' 
     1    11    22  4.999999900000E-003      0 'ImportedRecharge' 
     1    11    21  4.999999900000E-003      0 'ImportedRecharge' 
     1    11    20  4.999999900000E-003      0 'ImportedRecharge' 
     1    11    19  4.999999900000E-003      0 'ImportedRecharge' 
     1    11    18  4.999999900000E-003      0 'ImportedRecharge' 
     1    11    17  4.999999900000E-003      0 'ImportedRecharge' 
     1    11    16  4.999999900000E-003      0 'ImportedRecharge' 
     1    11    15  4.999999900000E-003      0 'ImportedRecharge' 
     1    11    14  4.999999900000E-003      0 'ImportedRecharge' 
     1    11    13  4.999999900000E-003      0 'ImportedRecharge' 
     1    11    12  4.999999900000E-003      0 'ImportedRecharge' 
     1    11    11  4.999999900000E-003      0 'ImportedRecharge' 
     1    11    10  4.999999900000E-003      0 'ImportedRecharge' 
     1    11     9  4.999999900000E-003      0 'ImportedRecharge' 
     1    11     8  4.999999900000E-003      0 'ImportedRecharge' 
     1    11     7  4.999999900000E-003      0 'ImportedRecharge' 
     1    11     6  4.999999900000E-003      0 'ImportedRecharge' 
     1    11     5  4.999999900000E-003      0 'ImportedRecharge' 
     1    11     4  4.999999900000E-003      0 'ImportedRecharge' 
     1    11     3  4.999999900000E-003      0 'ImportedRecharge' 
     1    11     2  4.999999900000E-003      0 'ImportedRecharge' 
     1    11     1  4.999999900000E-003      0 'ImportedRecharge' 
     1    10    25  4.999999900000E-003      0 'ImportedRecharge' 
     1    10    24  4.999999900000E-003      0 'ImportedRecharge' 
     1    10    23  4.999999900000E-003      0 'ImportedRecharge' 
     1    10    22  4.999999900000E-003      0 'ImportedRecharge' 
     1    10    21  4.999999900000E-003      0 'ImportedRecharge' 
     1    10    20  4.999999900000E-003      0 'ImportedRecharge' 
     1    10    19  4.999999900000E-003      0 'ImportedRecharge' 
     1    10    18  4.999999900000E-003      0 'ImportedRecharge' 
     1    10    17  4.999999900000E-003      0 'ImportedRecharge' 
     1    10    16  4.999999900000E-003      0 'ImportedRecharge' 
     1    10    15  4.999999900000E-003      0 'ImportedRecharge' 
     1    10    14  4.999999900000E-003      0 'ImportedRecharge' 
     1    10    13  4.999999900000E-003      0 'ImportedRecharge' 
     1    10    12  4.999999900000E-003      0 'ImportedRecharge' 
     1    10    11  4.999999900000E-003      0 'ImportedRecharge' 
     1    10    10  4.999999900000E-003      0 'ImportedRecharge' 
     1    10     9  4.999999900000E-003      0 'ImportedRecharge' 
     1    10     8  4.999999900000E-003      0 'ImportedRecharge' 
     1    10     7  4.999999900000E-003      0 'ImportedRecharge' 
     1    10     6  4.999999900000E-003      0 'ImportedRecharge' 
     1    10     5  4.999999900000E-003      0 'ImportedRecharge' 
     1    10     4  4.999999900000E-003      0 'ImportedRecharge' 
     1    10     3  4.999999900000E-003      0 'ImportedRecharge' 
     1    10     2  4.999999900000E-003      0 'ImportedRecharge' 
     1    10     1  4.999999900000E-003      0 'ImportedRecharge' 
     1     9    25  4.999999900000E-003      0 'ImportedRecharge' 
     1     9    24  4.999999900000E-003      0 'ImportedRecharge' 
     1     9    23  4.999999900000E-003      0 'ImportedRecharge' 
     1     9    22  4.999999900000E-003      0 'ImportedRecharge' 
     1     9    21  4.999999900000E-003      0 'ImportedRecharge' 
     1     9    20  4.999999900000E-003      0 'ImportedRecharge' 
     1     9    19  4.999999900000E-003      0 'ImportedRecharge' 
     1     9    18  4.999999900000E-003      0 'ImportedRecharge' 
     1     9    17  4.999999900000E-003      0 'ImportedRecharge' 
     1     9    16  4.999999900000E-003      0 'ImportedRecharge' 
     1     9    15  4.999999900000E-003      0 'ImportedRecharge' 
     1     9    14  4.999999900000E-003      0 'ImportedRecharge' 
     1     9    13  4.999999900000E-003      0 'ImportedRecharge' 
     1     9    12  4.999999900000E-003      0 'ImportedRecharge' 
     1     9    11  4.999999900000E-003      0 'ImportedRecharge' 
     1     9    10  4.999999900000E-003      0 'ImportedRecharge' 
     1     9     9  4.999999900000E-003      0 'ImportedRecharge' 
     1     9     8  4.999999900000E-003      0 'ImportedRecharge' 
     1     9     7  4.999999900000E-003      0 'ImportedRecharge' 
     1     9     6  4.999999900000E-003      0 'ImportedRecharge' 
     1     9     5  4.999999900000E-003      0 'ImportedRecharge' 
     1     9     4  4.999999900000E-003      0 'ImportedRecharge' 
     1     9     3  4.999999900000E-003      0 'ImportedRecharge' 
     1     9     2  4.999999900000E-003      0 'ImportedRecharge' 
     1     9     1  4.999999900000E-003      0 'ImportedRecharge' 
     1     8    25  4.999999900000E-003      0 'ImportedRecharge' 
     1     8    24  4.999999900000E-003      0 'ImportedRecharge' 
     1     8    23  4.999999900000E-003      0 'ImportedRecharge' 
     1     8    22  4.999999900000E-003      0 'ImportedRecharge' 
     1     8    21  4.999999900000E-003      0 'ImportedRecharge' 
     1     8    20  4.999999900000E-003      0 'ImportedRecharge' 
     1     8    19  4.999999900000E-003      0 'ImportedRecharge' 
     1     8    18  4.999999900000E-003      0 'ImportedRecharge' 
     1     8    17  4.999999900000E-003      0 'ImportedRecharge' 
     1     8    16  4.999999900000E-003      0 'ImportedRecharge' 
     1     8    15  4.999999900000E-003      0 'ImportedRecharge' 
     1     8    14  4.999999900000E-003      0 'ImportedRecharge' 
     1     8    13  4.999999900000E-003      0 'ImportedRecharge' 
     1     8    12  4.999999900000E-003      0 'ImportedRecharge' 
     1     8    11  4.999999900000E-003      0 'ImportedRecharge' 
     1     8    10  4.999999900000E-003      0 'ImportedRecharge' 
     1     8     9  4.999999900000E-003      0 'ImportedRecharge' 
     1     8     8  4.999999900000E-003      0 'ImportedRecharge' 
     1     8     7  4.999999900000E-003      0 'ImportedRecharge' 