# MODPATH Simulation file file created on 5/6/2024 by ModelMuse version 5.2.0.9.
MP7_Test1.mpn
..\..\output\output.MP7_Test1_Modpath\MP7_Test1.mplst
     1     1     1     1     2     0     0 # Data Set 3: SimulationType, TrackingDirection, WeakSinkOption, WeakSouceOption, BudgetOutputOption, TraceMode, TimeSeriesOutputOption
..\..\output\output.MP7_Test1_Modpath\MP7_Test1.end
     0 # Item 9: BudgetCellCount
     1 # Item 11: ReferenceTimeOption
  2.100000000000E+005  # Item 12: ReferenceTime
     2 # Item 14: StopTimeOption
     2 # Item 20: ZoneDataOption
     0 # Data Set 21: StopZone
CONSTANT        1 # Item 22: Zones Layer 1
CONSTANT        1 # Item 22: Zones Layer 2
CONSTANT        1 # Item 22: Zones Layer 3
CONSTANT        1 # Item 22: Zones Layer 4
CONSTANT        2 # Item 22: Zones Layer 5
     1
     1 # Item 26: ParticleGroupCount
ModpathParticles
     1 # Item 27: ReleaseOption
  0.000000000000E+000  # Item 28: ReleaseTime
INTERNAL
     1 # Starting Location Data Item 1: InputStyle
     2 # Starting Location Data Item 2: LocationStyle
  2400     1 # Starting Location Data Item 3: ParticleCount ParticleIdOption
     1     1 0.25 0.75 1  0.000000000000E+000      0
     2     1 0.25 0.25 1  0.000000000000E+000      0
     3     1 0.75 0.75 1  0.000000000000E+000      0
     4     1 0.75 0.25 1  0.000000000000E+000      0
     5    26 0.25 0.75 1  0.000000000000E+000      0
     6    26 0.25 0.25 1  0.000000000000E+000      0
     7    26 0.75 0.75 1  0.000000000000E+000      0
     8    26 0.75 0.25 1  0.000000000000E+000      0
     9    51 0.25 0.75 1  0.000000000000E+000      0
    10    51 0.25 0.25 1  0.000000000000E+000      0
    11    51 0.75 0.75 1  0.000000000000E+000      0
    12    51 0.75 0.25 1  0.000000000000E+000      0
    13    76 0.25 0.75 1  0.000000000000E+000      0
    14    76 0.25 0.25 1  0.000000000000E+000      0
    15    76 0.75 0.75 1  0.000000000000E+000      0
    16    76 0.75 0.25 1  0.000000000000E+000      0
    17   101 0.25 0.75 1  0.000000000000E+000      0
    18   101 0.25 0.25 1  0.000000000000E+000      0
    19   101 0.75 0.75 1  0.000000000000E+000      0
    20   101 0.75 0.25 1  0.000000000000E+000      0
    21   126 0.25 0.75 1  0.000000000000E+000      0
    22   126 0.25 0.25 1  0.000000000000E+000      0
    23   126 0.75 0.75 1  0.000000000000E+000      0
    24   126 0.75 0.25 1  0.000000000000E+000      0
    25   151 0.25 0.75 1  0.000000000000E+000      0
    26   151 0.25 0.25 1  0.000000000000E+000      0
    27   151 0.75 0.75 1  0.000000000000E+000      0
    28   151 0.75 0.25 1  0.000000000000E+000      0
    29   176 0.25 0.75 1  0.000000000000E+000      0
    30   176 0.25 0.25 1  0.000000000000E+000      0
    31   176 0.75 0.75 1  0.000000000000E+000      0
    32   176 0.75 0.25 1  0.000000000000E+000      0
    33   201 0.25 0.75 1  0.000000000000E+000      0
    34   201 0.25 0.25 1  0.000000000000E+000      0
    35   201 0.75 0.75 1  0.000000000000E+000      0
    36   201 0.75 0.25 1  0.000000000000E+000      0
    37   226 0.25 0.75 1  0.000000000000E+000      0
    38   226 0.25 0.25 1  0.000000000000E+000      0
    39   226 0.75 0.75 1  0.000000000000E+000      0
    40   226 0.75 0.25 1  0.000000000000E+000      0
    41   251 0.25 0.75 1  0.000000000000E+000      0
    42   251 0.25 0.25 1  0.000000000000E+000      0
    43   251 0.75 0.75 1  0.000000000000E+000      0
    44   251 0.75 0.25 1  0.000000000000E+000      0
    45   276 0.25 0.75 1  0.000000000000E+000      0
    46   276 0.25 0.25 1  0.000000000000E+000      0
    47   276 0.75 0.75 1  0.000000000000E+000      0
    48   276 0.75 0.25 1  0.000000000000E+000      0
    49   301 0.25 0.75 1  0.000000000000E+000      0
    50   301 0.25 0.25 1  0.000000000000E+000      0
    51   301 0.75 0.75 1  0.000000000000E+000      0
    52   301 0.75 0.25 1  0.000000000000E+000      0
    53   326 0.25 0.75 1  0.000000000000E+000      0
    54   326 0.25 0.25 1  0.000000000000E+000      0
    55   326 0.75 0.75 1  0.000000000000E+000      0
    56   326 0.75 0.25 1  0.000000000000E+000      0
    57   351 0.25 0.75 1  0.000000000000E+000      0
    58   351 0.25 0.25 1  0.000000000000E+000      0
    59   351 0.75 0.75 1  0.000000000000E+000      0
    60   351 0.75 0.25 1  0.000000000000E+000      0
    61   376 0.25 0.75 1  0.000000000000E+000      0
    62   376 0.25 0.25 1  0.000000000000E+000      0
    63   376 0.75 0.75 1  0.000000000000E+000      0
    64   376 0.75 0.25 1  0.000000000000E+000      0
    65   401 0.25 0.75 1  0.000000000000E+000      0
    66   401 0.25 0.25 1  0.000000000000E+000      0
    67   401 0.75 0.75 1  0.000000000000E+000      0
    68   401 0.75 0.25 1  0.000000000000E+000      0
    69   426 0.25 0.75 1  0.000000000000E+000      0
    70   426 0.25 0.25 1  0.000000000000E+000      0
    71   426 0.75 0.75 1  0.000000000000E+000      0
    72   426 0.75 0.25 1  0.000000000000E+000      0
    73   451 0.25 0.75 1  0.000000000000E+000      0
    74   451 0.25 0.25 1  0.000000000000E+000      0
    75   451 0.75 0.75 1  0.000000000000E+000      0
    76   451 0.75 0.25 1  0.000000000000E+000      0
    77   476 0.25 0.75 1  0.000000000000E+000      0
    78   476 0.25 0.25 1  0.000000000000E+000      0
    79   476 0.75 0.75 1  0.000000000000E+000      0
    80   476 0.75 0.25 1  0.000000000000E+000      0
    81   501 0.25 0.75 1  0.000000000000E+000      0
    82   501 0.25 0.25 1  0.000000000000E+000      0
    83   501 0.75 0.75 1  0.000000000000E+000      0
    84   501 0.75 0.25 1  0.000000000000E+000      0
    85   526 0.25 0.75 1  0.000000000000E+000      0
    86   526 0.25 0.25 1  0.000000000000E+000      0
    87   526 0.75 0.75 1  0.000000000000E+000      0
    88   526 0.75 0.25 1  0.000000000000E+000      0
    89   551 0.25 0.75 1  0.000000000000E+000      0
    90   551 0.25 0.25 1  0.000000000000E+000      0
    91   551 0.75 0.75 1  0.000000000000E+000      0
    92   551 0.75 0.25 1  0.000000000000E+000      0
    93   576 0.25 0.75 1  0.000000000000E+000      0
    94   576 0.25 0.25 1  0.000000000000E+000      0
    95   576 0.75 0.75 1  0.000000000000E+000      0
    96   576 0.75 0.25 1  0.000000000000E+000      0
    97   601 0.25 0.75 1  0.000000000000E+000      0
    98   601 0.25 0.25 1  0.000000000000E+000      0
    99   601 0.75 0.75 1  0.000000000000E+000      0
   100   601 0.75 0.25 1  0.000000000000E+000      0
   101     2 0.25 0.75 1  0.000000000000E+000      0
   102     2 0.25 0.25 1  0.000000000000E+000      0
   103     2 0.75 0.75 1  0.000000000000E+000      0
   104     2 0.75 0.25 1  0.000000000000E+000      0
   105    27 0.25 0.75 1  0.000000000000E+000      0
   106    27 0.25 0.25 1  0.000000000000E+000      0
   107    27 0.75 0.75 1  0.000000000000E+000      0
   108    27 0.75 0.25 1  0.000000000000E+000      0
   109    52 0.25 0.75 1  0.000000000000E+000      0
   110    52 0.25 0.25 1  0.000000000000E+000      0
   111    52 0.75 0.75 1  0.000000000000E+000      0
   112    52 0.75 0.25 1  0.000000000000E+000      0
   113    77 0.25 0.75 1  0.000000000000E+000      0
   114    77 0.25 0.25 1  0.000000000000E+000      0
   115    77 0.75 0.75 1  0.000000000000E+000      0
   116    77 0.75 0.25 1  0.000000000000E+000      0
   117   102 0.25 0.75 1  0.000000000000E+000      0
   118   102 0.25 0.25 1  0.000000000000E+000      0
   119   102 0.75 0.75 1  0.000000000000E+000      0
   120   102 0.75 0.25 1  0.000000000000E+000      0
   121   127 0.25 0.75 1  0.000000000000E+000      0
   122   127 0.25 0.25 1  0.000000000000E+000      0
   123   127 0.75 0.75 1  0.000000000000E+000      0
   124   127 0.75 0.25 1  0.000000000000E+000      0
   125   152 0.25 0.75 1  0.000000000000E+000      0
   126   152 0.25 0.25 1  0.000000000000E+000      0
   127   152 0.75 0.75 1  0.000000000000E+000      0
   128   152 0.75 0.25 1  0.000000000000E+000      0
   129   177 0.25 0.75 1  0.000000000000E+000      0
   130   177 0.25 0.25 1  0.000000000000E+000      0
   131   177 0.75 0.75 1  0.000000000000E+000      0
   132   177 0.75 0.25 1  0.000000000000E+000      0
   133   202 0.25 0.75 1  0.000000000000E+000      0
   134   202 0.25 0.25 1  0.000000000000E+000      0
   135   202 0.75 0.75 1  0.000000000000E+000      0
   136   202 0.75 0.25 1  0.000000000000E+000      0
   137   227 0.25 0.75 1  0.000000000000E+000      0
   138   227 0.25 0.25 1  0.000000000000E+000      0
   139   227 0.75 0.75 1  0.000000000000E+000      0
   140   227 0.75 0.25 1  0.000000000000E+000      0
   141   252 0.25 0.75 1  0.000000000000E+000      0
   142   252 0.25 0.25 1  0.000000000000E+000      0
   143   252 0.75 0.75 1  0.000000000000E+000      0
   144   252 0.75 0.25 1  0.000000000000E+000      0
   145   277 0.25 0.75 1  0.000000000000E+000      0
   146   277 0.25 0.25 1  0.000000000000E+000      0
   147   277 0.75 0.75 1  0.000000000000E+000      0
   148   277 0.75 0.25 1  0.000000000000E+000      0
   149   302 0.25 0.75 1  0.000000000000E+000      0
   150   302 0.25 0.25 1  0.000000000000E+000      0
   151   302 0.75 0.75 1  0.000000000000E+000      0
   152   302 0.75 0.25 1  0.000000000000E+000      0
   153   327 0.25 0.75 1  0.000000000000E+000      0
   154   327 0.25 0.25 1  0.000000000000E+000      0
   155   327 0.75 0.75 1  0.000000000000E+000      0
   156   327 0.75 0.25 1  0.000000000000E+000      0
   157   352 0.25 0.75 1  0.000000000000E+000      0
   158   352 0.25 0.25 1  0.000000000000E+000      0
   159   352 0.75 0.75 1  0.000000000000E+000      0
   160   352 0.75 0.25 1  0.000000000000E+000      0
   161   377 0.25 0.75 1  0.000000000000E+000      0
   162   377 0.25 0.25 1  0.000000000000E+000      0
   163   377 0.75 0.75 1  0.000000000000E+000      0
   164   377 0.75 0.25 1  0.000000000000E+000      0
   165   402 0.25 0.75 1  0.000000000000E+000      0
   166   402 0.25 0.25 1  0.000000000000E+000      0
   167   402 0.75 0.75 1  0.000000000000E+000      0
   168   402 0.75 0.25 1  0.000000000000E+000      0
   169   427 0.25 0.75 1  0.000000000000E+000      0
   170   427 0.25 0.25 1  0.000000000000E+000      0
   171   427 0.75 0.75 1  0.000000000000E+000      0
   172   427 0.75 0.25 1  0.000000000000E+000      0
   173   452 0.25 0.75 1  0.000000000000E+000      0
   174   452 0.25 0.25 1  0.000000000000E+000      0
   175   452 0.75 0.75 1  0.000000000000E+000      0
   176   452 0.75 0.25 1  0.000000000000E+000      0
   177   477 0.25 0.75 1  0.000000000000E+000      0
   178   477 0.25 0.25 1  0.000000000000E+000      0
   179   477 0.75 0.75 1  0.000000000000E+000      0
   180   477 0.75 0.25 1  0.000000000000E+000      0
   181   502 0.25 0.75 1  0.000000000000E+000      0
   182   502 0.25 0.25 1  0.000000000000E+000      0
   183   502 0.75 0.75 1  0.000000000000E+000      0
   184   502 0.75 0.25 1  0.000000000000E+000      0
   185   527 0.25 0.75 1  0.000000000000E+000      0
   186   527 0.25 0.25 1  0.000000000000E+000      0
   187   527 0.75 0.75 1  0.000000000000E+000      0
   188   527 0.75 0.25 1  0.000000000000E+000      0
   189   552 0.25 0.75 1  0.000000000000E+000      0
   190   552 0.25 0.25 1  0.000000000000E+000      0
   191   552 0.75 0.75 1  0.000000000000E+000      0
   192   552 0.75 0.25 1  0.000000000000E+000      0
   193   577 0.25 0.75 1  0.000000000000E+000      0
   194   577 0.25 0.25 1  0.000000000000E+000      0
   195   577 0.75 0.75 1  0.000000000000E+000      0
   196   577 0.75 0.25 1  0.000000000000E+000      0
   197   602 0.25 0.75 1  0.000000000000E+000      0
   198   602 0.25 0.25 1  0.000000000000E+000      0
   199   602 0.75 0.75 1  0.000000000000E+000      0
   200   602 0.75 0.25 1  0.000000000000E+000      0
   201     3 0.25 0.75 1  0.000000000000E+000      0
   202     3 0.25 0.25 1  0.000000000000E+000      0
   203     3 0.75 0.75 1  0.000000000000E+000      0
   204     3 0.75 0.25 1  0.000000000000E+000      0
   205    28 0.25 0.75 1  0.000000000000E+000      0
   206    28 0.25 0.25 1  0.000000000000E+000      0
   207    28 0.75 0.75 1  0.000000000000E+000      0
   208    28 0.75 0.25 1  0.000000000000E+000      0
   209    53 0.25 0.75 1  0.000000000000E+000      0
   210    53 0.25 0.25 1  0.000000000000E+000      0
   211    53 0.75 0.75 1  0.000000000000E+000      0
   212    53 0.75 0.25 1  0.000000000000E+000      0
   213    78 0.25 0.75 1  0.000000000000E+000      0
   214    78 0.25 0.25 1  0.000000000000E+000      0
   215    78 0.75 0.75 1  0.000000000000E+000      0
   216    78 0.75 0.25 1  0.000000000000E+000      0
   217   103 0.25 0.75 1  0.000000000000E+000      0
   218   103 0.25 0.25 1  0.000000000000E+000      0
   219   103 0.75 0.75 1  0.000000000000E+000      0
   220   103 0.75 0.25 1  0.000000000000E+000      0
   221   128 0.25 0.75 1  0.000000000000E+000      0
   222   128 0.25 0.25 1  0.000000000000E+000      0
   223   128 0.75 0.75 1  0.000000000000E+000      0
   224   128 0.75 0.25 1  0.000000000000E+000      0
   225   153 0.25 0.75 1  0.000000000000E+000      0
   226   153 0.25 0.25 1  0.000000000000E+000      0
   227   153 0.75 0.75 1  0.000000000000E+000      0
   228   153 0.75 0.25 1  0.000000000000E+000      0
   229   178 0.25 0.75 1  0.000000000000E+000      0
   230   178 0.25 0.25 1  0.000000000000E+000      0
   231   178 0.75 0.75 1  0.000000000000E+000      0
   232   178 0.75 0.25 1  0.000000000000E+000      0
   233   203 0.25 0.75 1  0.000000000000E+000      0
   234   203 0.25 0.25 1  0.000000000000E+000      0
   235   203 0.75 0.75 1  0.000000000000E+000      0
   236   203 0.75 0.25 1  0.000000000000E+000      0
   237   228 0.25 0.75 1  0.000000000000E+000      0
   238   228 0.25 0.25 1  0.000000000000E+000      0
   239   228 0.75 0.75 1  0.000000000000E+000      0
   240   228 0.75 0.25 1  0.000000000000E+000      0
   241   253 0.25 0.75 1  0.000000000000E+000      0
   242   253 0.25 0.25 1  0.000000000000E+000      0
   243   253 0.75 0.75 1  0.000000000000E+000      0
   244   253 0.75 0.25 1  0.000000000000E+000      0
   245   278 0.25 0.75 1  0.000000000000E+000      0
   246   278 0.25 0.25 1  0.000000000000E+000      0
   247   278 0.75 0.75 1  0.000000000000E+000      0
   248   278 0.75 0.25 1  0.000000000000E+000      0
   249   303 0.25 0.75 1  0.000000000000E+000      0
   250   303 0.25 0.25 1  0.000000000000E+000      0
   251   303 0.75 0.75 1  0.000000000000E+000      0
   252   303 0.75 0.25 1  0.000000000000E+000      0
   253   328 0.25 0.75 1  0.000000000000E+000      0
   254   328 0.25 0.25 1  0.000000000000E+000      0
   255   328 0.75 0.75 1  0.000000000000E+000      0
   256   328 0.75 0.25 1  0.000000000000E+000      0
   257   353 0.25 0.75 1  0.000000000000E+000      0
   258   353 0.25 0.25 1  0.000000000000E+000      0
   259   353 0.75 0.75 1  0.000000000000E+000      0
   260   353 0.75 0.25 1  0.000000000000E+000      0
   261   378 0.25 0.75 1  0.000000000000E+000      0
   262   378 0.25 0.25 1  0.000000000000E+000      0
   263   378 0.75 0.75 1  0.000000000000E+000      0
   264   378 0.75 0.25 1  0.000000000000E+000      0
   265   403 0.25 0.75 1  0.000000000000E+000      0
   266   403 0.25 0.25 1  0.000000000000E+000      0
   267   403 0.75 0.75 1  0.000000000000E+000      0
   268   403 0.75 0.25 1  0.000000000000E+000      0
   269   428 0.25 0.75 1  0.000000000000E+000      0
   270   428 0.25 0.25 1  0.000000000000E+000      0
   271   428 0.75 0.75 1  0.000000000000E+000      0
   272   428 0.75 0.25 1  0.000000000000E+000      0
   273   453 0.25 0.75 1  0.000000000000E+000      0
   274   453 0.25 0.25 1  0.000000000000E+000      0
   275   453 0.75 0.75 1  0.000000000000E+000      0
   276   453 0.75 0.25 1  0.000000000000E+000      0
   277   478 0.25 0.75 1  0.000000000000E+000      0
   278   478 0.25 0.25 1  0.000000000000E+000      0
   279   478 0.75 0.75 1  0.000000000000E+000      0
   280   478 0.75 0.25 1  0.000000000000E+000      0
   281   503 0.25 0.75 1  0.000000000000E+000      0
   282   503 0.25 0.25 1  0.000000000000E+000      0
   283   503 0.75 0.75 1  0.000000000000E+000      0
   284   503 0.75 0.25 1  0.000000000000E+000      0
   285   528 0.25 0.75 1  0.000000000000E+000      0
   286   528 0.25 0.25 1  0.000000000000E+000      0
   287   528 0.75 0.75 1  0.000000000000E+000      0
   288   528 0.75 0.25 1  0.000000000000E+000      0
   289   553 0.25 0.75 1  0.000000000000E+000      0
   290   553 0.25 0.25 1  0.000000000000E+000      0
   291   553 0.75 0.75 1  0.000000000000E+000      0
   292   553 0.75 0.25 1  0.000000000000E+000      0
   293   578 0.25 0.75 1  0.000000000000E+000      0
   294   578 0.25 0.25 1  0.000000000000E+000      0
   295   578 0.75 0.75 1  0.000000000000E+000      0
   296   578 0.75 0.25 1  0.000000000000E+000      0
   297   603 0.25 0.75 1  0.000000000000E+000      0
   298   603 0.25 0.25 1  0.000000000000E+000      0
   299   603 0.75 0.75 1  0.000000000000E+000      0
   300   603 0.75 0.25 1  0.000000000000E+000      0
   301     4 0.25 0.75 1  0.000000000000E+000      0
   302     4 0.25 0.25 1  0.000000000000E+000      0
   303     4 0.75 0.75 1  0.000000000000E+000      0
   304     4 0.75 0.25 1  0.000000000000E+000      0
   305    29 0.25 0.75 1  0.000000000000E+000      0
   306    29 0.25 0.25 1  0.000000000000E+000      0
   307    29 0.75 0.75 1  0.000000000000E+000      0
   308    29 0.75 0.25 1  0.000000000000E+000      0
   309    54 0.25 0.75 1  0.000000000000E+000      0
   310    54 0.25 0.25 1  0.000000000000E+000      0
   311    54 0.75 0.75 1  0.000000000000E+000      0
   312    54 0.75 0.25 1  0.000000000000E+000      0
   313    79 0.25 0.75 1  0.000000000000E+000      0
   314    79 0.25 0.25 1  0.000000000000E+000      0
   315    79 0.75 0.75 1  0.000000000000E+000      0
   316    79 0.75 0.25 1  0.000000000000E+000      0
   317   104 0.25 0.75 1  0.000000000000E+000      0
   318   104 0.25 0.25 1  0.000000000000E+000      0
   319   104 0.75 0.75 1  0.000000000000E+000      0
   320   104 0.75 0.25 1  0.000000000000E+000      0
   321   129 0.25 0.75 1  0.000000000000E+000      0
   322   129 0.25 0.25 1  0.000000000000E+000      0
   323   129 0.75 0.75 1  0.000000000000E+000      0
   324   129 0.75 0.25 1  0.000000000000E+000      0
   325   154 0.25 0.75 1  0.000000000000E+000      0
   326   154 0.25 0.25 1  0.000000000000E+000      0
   327   154 0.75 0.75 1  0.000000000000E+000      0
   328   154 0.75 0.25 1  0.000000000000E+000      0
   329   179 0.25 0.75 1  0.000000000000E+000      0
   330   179 0.25 0.25 1  0.000000000000E+000      0
   331   179 0.75 0.75 1  0.000000000000E+000      0
   332   179 0.75 0.25 1  0.000000000000E+000      0
   333   204 0.25 0.75 1  0.000000000000E+000      0
   334   204 0.25 0.25 1  0.000000000000E+000      0
   335   204 0.75 0.75 1  0.000000000000E+000      0
   336   204 0.75 0.25 1  0.000000000000E+000      0
   337   229 0.25 0.75 1  0.000000000000E+000      0
   338   229 0.25 0.25 1  0.000000000000E+000      0
   339   229 0.75 0.75 1  0.000000000000E+000      0
   340   229 0.75 0.25 1  0.000000000000E+000      0
   341   254 0.25 0.75 1  0.000000000000E+000      0
   342   254 0.25 0.25 1  0.000000000000E+000      0
   343   254 0.75 0.75 1  0.000000000000E+000      0
   344   254 0.75 0.25 1  0.000000000000E+000      0
   345   279 0.25 0.75 1  0.000000000000E+000      0
   346   279 0.25 0.25 1  0.000000000000E+000      0
   347   279 0.75 0.75 1  0.000000000000E+000      0
   348   279 0.75 0.25 1  0.000000000000E+000      0
   349   304 0.25 0.75 1  0.000000000000E+000      0
   350   304 0.25 0.25 1  0.000000000000E+000      0
   351   304 0.75 0.75 1  0.000000000000E+000      0
   352   304 0.75 0.25 1  0.000000000000E+000      0
   353   329 0.25 0.75 1  0.000000000000E+000      0
   354   329 0.25 0.25 1  0.000000000000E+000      0
   355   329 0.75 0.75 1  0.000000000000E+000      0
   356   329 0.75 0.25 1  0.000000000000E+000      0
   357   354 0.25 0.75 1  0.000000000000E+000      0
   358   354 0.25 0.25 1  0.000000000000E+000      0
   359   354 0.75 0.75 1  0.000000000000E+000      0
   360   354 0.75 0.25 1  0.000000000000E+000      0
   361   379 0.25 0.75 1  0.000000000000E+000      0
   362   379 0.25 0.25 1  0.000000000000E+000      0
   363   379 0.75 0.75 1  0.000000000000E+000      0
   364   379 0.75 0.25 1  0.000000000000E+000      0
   365   404 0.25 0.75 1  0.000000000000E+000      0
   366   404 0.25 0.25 1  0.000000000000E+000      0
   367   404 0.75 0.75 1  0.000000000000E+000      0
   368   404 0.75 0.25 1  0.000000000000E+000      0
   369   429 0.25 0.75 1  0.000000000000E+000      0
   370   429 0.25 0.25 1  0.000000000000E+000      0
   371   429 0.75 0.75 1  0.000000000000E+000      0
   372   429 0.75 0.25 1  0.000000000000E+000      0
   373   454 0.25 0.75 1  0.000000000000E+000      0
   374   454 0.25 0.25 1  0.000000000000E+000      0
   375   454 0.75 0.75 1  0.000000000000E+000      0
   376   454 0.75 0.25 1  0.000000000000E+000      0
   377   479 0.25 0.75 1  0.000000000000E+000      0
   378   479 0.25 0.25 1  0.000000000000E+000      0
   379   479 0.75 0.75 1  0.000000000000E+000      0
   380   479 0.75 0.25 1  0.000000000000E+000      0
   381   504 0.25 0.75 1  0.000000000000E+000      0
   382   504 0.25 0.25 1  0.000000000000E+000      0
   383   504 0.75 0.75 1  0.000000000000E+000      0
   384   504 0.75 0.25 1  0.000000000000E+000      0
   385   529 0.25 0.75 1  0.000000000000E+000      0
   386   529 0.25 0.25 1  0.000000000000E+000      0
   387   529 0.75 0.75 1  0.000000000000E+000      0
   388   529 0.75 0.25 1  0.000000000000E+000      0
   389   554 0.25 0.75 1  0.000000000000E+000      0
   390   554 0.25 0.25 1  0.000000000000E+000      0
   391   554 0.75 0.75 1  0.000000000000E+000      0
   392   554 0.75 0.25 1  0.000000000000E+000      0
   393   579 0.25 0.75 1  0.000000000000E+000      0
   394   579 0.25 0.25 1  0.000000000000E+000      0
   395   579 0.75 0.75 1  0.000000000000E+000      0
   396   579 0.75 0.25 1  0.000000000000E+000      0
   397   604 0.25 0.75 1  0.000000000000E+000      0
   398   604 0.25 0.25 1  0.000000000000E+000      0
   399   604 0.75 0.75 1  0.000000000000E+000      0
   400   604 0.75 0.25 1  0.000000000000E+000      0
   401     5 0.25 0.75 1  0.000000000000E+000      0
   402     5 0.25 0.25 1  0.000000000000E+000      0
   403     5 0.75 0.75 1  0.000000000000E+000      0
   404     5 0.75 0.25 1  0.000000000000E+000      0
   405    30 0.25 0.75 1  0.000000000000E+000      0
   406    30 0.25 0.25 1  0.000000000000E+000      0
   407    30 0.75 0.75 1  0.000000000000E+000      0
   408    30 0.75 0.25 1  0.000000000000E+000      0
   409    55 0.25 0.75 1  0.000000000000E+000      0
   410    55 0.25 0.25 1  0.000000000000E+000      0
   411    55 0.75 0.75 1  0.000000000000E+000      0
   412    55 0.75 0.25 1  0.000000000000E+000      0
   413    80 0.25 0.75 1  0.000000000000E+000      0
   414    80 0.25 0.25 1  0.000000000000E+000      0
   415    80 0.75 0.75 1  0.000000000000E+000      0
   416    80 0.75 0.25 1  0.000000000000E+000      0
   417   105 0.25 0.75 1  0.000000000000E+000      0
   418   105 0.25 0.25 1  0.000000000000E+000      0
   419   105 0.75 0.75 1  0.000000000000E+000      0
   420   105 0.75 0.25 1  0.000000000000E+000      0
   421   130 0.25 0.75 1  0.000000000000E+000      0
   422   130 0.25 0.25 1  0.000000000000E+000      0
   423   130 0.75 0.75 1  0.000000000000E+000      0
   424   130 0.75 0.25 1  0.000000000000E+000      0
   425   155 0.25 0.75 1  0.000000000000E+000      0
   426   155 0.25 0.25 1  0.000000000000E+000      0
   427   155 0.75 0.75 1  0.000000000000E+000      0
   428   155 0.75 0.25 1  0.000000000000E+000      0
   429   180 0.25 0.75 1  0.000000000000E+000      0
   430   180 0.25 0.25 1  0.000000000000E+000      0
   431   180 0.75 0.75 1  0.000000000000E+000      0
   432   180 0.75 0.25 1  0.000000000000E+000      0
   433   205 0.25 0.75 1  0.000000000000E+000      0
   434   205 0.25 0.25 1  0.000000000000E+000      0
   435   205 0.75 0.75 1  0.000000000000E+000      0
   436   205 0.75 0.25 1  0.000000000000E+000      0
   437   230 0.25 0.75 1  0.000000000000E+000      0
   438   230 0.25 0.25 1  0.000000000000E+000      0
   439   230 0.75 0.75 1  0.000000000000E+000      0
   440   230 0.75 0.25 1  0.000000000000E+000      0
   441   255 0.25 0.75 1  0.000000000000E+000      0
   442   255 0.25 0.25 1  0.000000000000E+000      0
   443   255 0.75 0.75 1  0.000000000000E+000      0
   444   255 0.75 0.25 1  0.000000000000E+000      0
   445   280 0.25 0.75 1  0.000000000000E+000      0
   446   280 0.25 0.25 1  0.000000000000E+000      0
   447   280 0.75 0.75 1  0.000000000000E+000      0
   448   280 0.75 0.25 1  0.000000000000E+000      0
   449   305 0.25 0.75 1  0.000000000000E+000      0
   450   305 0.25 0.25 1  0.000000000000E+000      0
   451   305 0.75 0.75 1  0.000000000000E+000      0
   452   305 0.75 0.25 1  0.000000000000E+000      0
   453   330 0.25 0.75 1  0.000000000000E+000      0
   454   330 0.25 0.25 1  0.000000000000E+000      0
   455   330 0.75 0.75 1  0.000000000000E+000      0
   456   330 0.75 0.25 1  0.000000000000E+000      0
   457   355 0.25 0.75 1  0.000000000000E+000      0
   458   355 0.25 0.25 1  0.000000000000E+000      0
   459   355 0.75 0.75 1  0.000000000000E+000      0
   460   355 0.75 0.25 1  0.000000000000E+000      0
   461   380 0.25 0.75 1  0.000000000000E+000      0
   462   380 0.25 0.25 1  0.000000000000E+000      0
   463   380 0.75 0.75 1  0.000000000000E+000      0
   464   380 0.75 0.25 1  0.000000000000E+000      0
   465   405 0.25 0.75 1  0.000000000000E+000      0
   466   405 0.25 0.25 1  0.000000000000E+000      0
   467   405 0.75 0.75 1  0.000000000000E+000      0
   468   405 0.75 0.25 1  0.000000000000E+000      0
   469   430 0.25 0.75 1  0.000000000000E+000      0
   470   430 0.25 0.25 1  0.000000000000E+000      0
   471   430 0.75 0.75 1  0.000000000000E+000      0
   472   430 0.75 0.25 1  0.000000000000E+000      0
   473   455 0.25 0.75 1  0.000000000000E+000      0
   474   455 0.25 0.25 1  0.000000000000E+000      0
   475   455 0.75 0.75 1  0.000000000000E+000      0
   476   455 0.75 0.25 1  0.000000000000E+000      0
   477   480 0.25 0.75 1  0.000000000000E+000      0
   478   480 0.25 0.25 1  0.000000000000E+000      0
   479   480 0.75 0.75 1  0.000000000000E+000      0
   480   480 0.75 0.25 1  0.000000000000E+000      0
   481   505 0.25 0.75 1  0.000000000000E+000      0
   482   505 0.25 0.25 1  0.000000000000E+000      0
   483   505 0.75 0.75 1  0.000000000000E+000      0
   484   505 0.75 0.25 1  0.000000000000E+000      0
   485   530 0.25 0.75 1  0.000000000000E+000      0
   486   530 0.25 0.25 1  0.000000000000E+000      0
   487   530 0.75 0.75 1  0.000000000000E+000      0
   488   530 0.75 0.25 1  0.000000000000E+000      0
   489   555 0.25 0.75 1  0.000000000000E+000      0
   490   555 0.25 0.25 1  0.000000000000E+000      0
   491   555 0.75 0.75 1  0.000000000000E+000      0
   492   555 0.75 0.25 1  0.000000000000E+000      0
   493   580 0.25 0.75 1  0.000000000000E+000      0
   494   580 0.25 0.25 1  0.000000000000E+000      0
   495   580 0.75 0.75 1  0.000000000000E+000      0
   496   580 0.75 0.25 1  0.000000000000E+000      0
   497   605 0.25 0.75 1  0.000000000000E+000      0
   498   605 0.25 0.25 1  0.000000000000E+000      0
   499   605 0.75 0.75 1  0.000000000000E+000      0
   500   605 0.75 0.25 1  0.000000000000E+000      0
   501     6 0.25 0.75 1  0.000000000000E+000      0
   502     6 0.25 0.25 1  0.000000000000E+000      0
   503     6 0.75 0.75 1  0.000000000000E+000      0
   504     6 0.75 0.25 1  0.000000000000E+000      0
   505    31 0.25 0.75 1  0.000000000000E+000      0
   506    31 0.25 0.25 1  0.000000000000E+000      0
   507    31 0.75 0.75 1  0.000000000000E+000      0
   508    31 0.75 0.25 1  0.000000000000E+000      0
   509    56 0.25 0.75 1  0.000000000000E+000      0
   510    56 0.25 0.25 1  0.000000000000E+000      0
   511    56 0.75 0.75 1  0.000000000000E+000      0
   512    56 0.75 0.25 1  0.000000000000E+000      0
   513    81 0.25 0.75 1  0.000000000000E+000      0
   514    81 0.25 0.25 1  0.000000000000E+000      0
   515    81 0.75 0.75 1  0.000000000000E+000      0
   516    81 0.75 0.25 1  0.000000000000E+000      0
   517   106 0.25 0.75 1  0.000000000000E+000      0
   518   106 0.25 0.25 1  0.000000000000E+000      0
   519   106 0.75 0.75 1  0.000000000000E+000      0
   520   106 0.75 0.25 1  0.000000000000E+000      0
   521   131 0.25 0.75 1  0.000000000000E+000      0
   522   131 0.25 0.25 1  0.000000000000E+000      0
   523   131 0.75 0.75 1  0.000000000000E+000      0
   524   131 0.75 0.25 1  0.000000000000E+000      0
   525   156 0.25 0.75 1  0.000000000000E+000      0
   526   156 0.25 0.25 1  0.000000000000E+000      0
   527   156 0.75 0.75 1  0.000000000000E+000      0
   528   156 0.75 0.25 1  0.000000000000E+000      0
   529   181 0.25 0.75 1  0.000000000000E+000      0
   530   181 0.25 0.25 1  0.000000000000E+000      0
   531   181 0.75 0.75 1  0.000000000000E+000      0
   532   181 0.75 0.25 1  0.000000000000E+000      0
   533   206 0.25 0.75 1  0.000000000000E+000      0
   534   206 0.25 0.25 1  0.000000000000E+000      0
   535   206 0.75 0.75 1  0.000000000000E+000      0
   536   206 0.75 0.25 1  0.000000000000E+000      0
   537   231 0.25 0.75 1  0.000000000000E+000      0
   538   231 0.25 0.25 1  0.000000000000E+000      0
   539   231 0.75 0.75 1  0.000000000000E+000      0
   540   231 0.75 0.25 1  0.000000000000E+000      0
   541   256 0.25 0.75 1  0.000000000000E+000      0
   542   256 0.25 0.25 1  0.000000000000E+000      0
   543   256 0.75 0.75 1  0.000000000000E+000      0
   544   256 0.75 0.25 1  0.000000000000E+000      0