# Output Control file created on 5/6/2024 by ModelMuse version 5.2.0.9.
BEGIN OPTIONS
  BUDGET FILEOUT 'MP7_Test1.cbc'
  HEAD FILEOUT 'MP7_Test1.bhd'
END OPTIONS

BEGIN PERIOD      1
  SAVE HEAD ALL
  PRINT BUDGET ALL
  SAVE BUDGET ALL
END PERIOD 

BEGIN PERIOD      2
  SAVE HEAD ALL
  PRINT BUDGET ALL
  SAVE BUDGET ALL
END PERIOD 

BEGIN PERIOD      3
  SAVE HEAD ALL
  PRINT BUDGET ALL
  SAVE BUDGET ALL
END PERIOD 

