# RIV: River package file created on 5/6/2024 by ModelMuse version 5.2.0.9.
BEGIN OPTIONS
    AUXILIARY IFACE
    BOUNDNAMES
    PRINT_INPUT
    SAVE_FLOWS
END OPTIONS

BEGIN DIMENSIONS
  MAXBOUND    25
END DIMENSIONS

BEGIN PERIOD      1
     1     1    25  3.200000000000E+002   1.000000000000E+005   3.150000000000E+002      0 'Imported_Riv_StressPeriod1_Layer1_1'  # Data Set 6: Layer Row Column Stage Cond Rbot IFACE boundname
     1     2    25  3.200000000000E+002   1.000000000000E+005   3.150000000000E+002      0 'Imported_Riv_StressPeriod1_Layer1_1'  # Data Set 6: Layer Row Column Stage Cond Rbot IFACE boundname
     1     3    25  3.200000000000E+002   1.000000000000E+005   3.150000000000E+002      0 'Imported_Riv_StressPeriod1_Layer1_1'  # Data Set 6: Layer Row Column Stage Cond Rbot IFACE boundname
     1     4    25  3.200000000000E+002   1.000000000000E+005   3.150000000000E+002      0 'Imported_Riv_StressPeriod1_Layer1_1'  # Data Set 6: Layer Row Column Stage Cond Rbot IFACE boundname
     1     5    25  3.200000000000E+002   1.000000000000E+005   3.150000000000E+002      0 'Imported_Riv_StressPeriod1_Layer1_1'  # Data Set 6: Layer Row Column Stage Cond Rbot IFACE boundname
     1     6    25  3.200000000000E+002   1.000000000000E+005   3.150000000000E+002      0 'Imported_Riv_StressPeriod1_Layer1_1'  # Data Set 6: Layer Row Column Stage Cond Rbot IFACE boundname
     1     7    25  3.200000000000E+002   1.000000000000E+005   3.150000000000E+002      0 'Imported_Riv_StressPeriod1_Layer1_1'  # Data Set 6: Layer Row Column Stage Cond Rbot IFACE boundname
     1     8    25  3.200000000000E+002   1.000000000000E+005   3.150000000000E+002      0 'Imported_Riv_StressPeriod1_Layer1_1'  # Data Set 6: Layer Row Column Stage Cond Rbot IFACE boundname
     1     9    25  3.200000000000E+002   1.000000000000E+005   3.150000000000E+002      0 'Imported_Riv_StressPeriod1_Layer1_1'  # Data Set 6: Layer Row Column Stage Cond Rbot IFACE boundname
     1    10    25  3.200000000000E+002   1.000000000000E+005   3.150000000000E+002      0 'Imported_Riv_StressPeriod1_Layer1_1'  # Data Set 6: Layer Row Column Stage Cond Rbot IFACE boundname
     1    11    25  3.200000000000E+002   1.000000000000E+005   3.150000000000E+002      0 'Imported_Riv_StressPeriod1_Layer1_1'  # Data Set 6: Layer Row Column Stage Cond Rbot IFACE boundname
     1    12    25  3.200000000000E+002   1.000000000000E+005   3.150000000000E+002      0 'Imported_Riv_StressPeriod1_Layer1_1'  # Data Set 6: Layer Row Column Stage Cond Rbot IFACE boundname
     1    13    25  3.200000000000E+002   1.000000000000E+005   3.150000000000E+002      0 'Imported_Riv_StressPeriod1_Layer1_1'  # Data Set 6: Layer Row Column Stage Cond Rbot IFACE boundname
     1    14    25  3.200000000000E+002   1.000000000000E+005   3.150000000000E+002      0 'Imported_Riv_StressPeriod1_Layer1_1'  # Data Set 6: Layer Row Column Stage Cond Rbot IFACE boundname
     1    15    25  3.200000000000E+002   1.000000000000E+005   3.150000000000E+002      0 'Imported_Riv_StressPeriod1_Layer1_1'  # Data Set 6: Layer Row Column Stage Cond Rbot IFACE boundname
     1    16    25  3.200000000000E+002   1.000000000000E+005   3.150000000000E+002      0 'Imported_Riv_StressPeriod1_Layer1_1'  # Data Set 6: Layer Row Column Stage Cond Rbot IFACE boundname
     1    17    25  3.200000000000E+002   1.000000000000E+005   3.150000000000E+002      0 'Imported_Riv_StressPeriod1_Layer1_1'  # Data Set 6: Layer Row Column Stage Cond Rbot IFACE boundname
     1    18    25  3.200000000000E+002   1.000000000000E+005   3.150000000000E+002      0 'Imported_Riv_StressPeriod1_Layer1_1'  # Data Set 6: Layer Row Column Stage Cond Rbot IFACE boundname
     1    19    25  3.200000000000E+002   1.000000000000E+005   3.150000000000E+002      0 'Imported_Riv_StressPeriod1_Layer1_1'  # Data Set 6: Layer Row Column Stage Cond Rbot IFACE boundname
     1    20    25  3.200000000000E+002   1.000000000000E+005   3.150000000000E+002      0 'Imported_Riv_StressPeriod1_Layer1_1'  # Data Set 6: Layer Row Column Stage Cond Rbot IFACE boundname
     1    21    25  3.200000000000E+002   1.000000000000E+005   3.150000000000E+002      0 'Imported_Riv_StressPeriod1_Layer1_1'  # Data Set 6: Layer Row Column Stage Cond Rbot IFACE boundname
     1    22    25  3.200000000000E+002   1.000000000000E+005   3.150000000000E+002      0 'Imported_Riv_StressPeriod1_Layer1_1'  # Data Set 6: Layer Row Column Stage Cond Rbot IFACE boundname
     1    23    25  3.200000000000E+002   1.000000000000E+005   3.150000000000E+002      0 'Imported_Riv_StressPeriod1_Layer1_1'  # Data Set 6: Layer Row Column Stage Cond Rbot IFACE boundname
     1    24    25  3.200000000000E+002   1.000000000000E+005   3.150000000000E+002      0 'Imported_Riv_StressPeriod1_Layer1_1'  # Data Set 6: Layer Row Column Stage Cond Rbot IFACE boundname
     1    25    25  3.200000000000E+002   1.000000000000E+005   3.150000000000E+002      0 'Imported_Riv_StressPeriod1_Layer1_1'  # Data Set 6: Layer Row Column Stage Cond Rbot IFACE boundname
END PERIOD 

