# Initial Conditions Package file created on 6/24/2024 by ModelMuse version 5.2.0.18.
BEGIN OPTIONS
END OPTIONS

BEGIN GRIDDATA
  STRT LAYERED IPRN    12
    CONSTANT   3.200000000000E+002  # STRT Layer 1

    CONSTANT   3.200000000000E+002  # STRT Layer 2

    CONSTANT   3.200000000000E+002  # STRT Layer 3

    CONSTANT   3.200000000000E+002  # STRT Layer 4

    CONSTANT   3.200000000000E+002  # STRT Layer 5

END GRIDDATA

