# WEL: Well package file created on 5/6/2024 by ModelMuse version 5.2.0.9.
BEGIN OPTIONS
    AUXILIARY IFACE
    BOUNDNAMES
    PRINT_INPUT
    SAVE_FLOWS
    AUTO_FLOW_REDUCE  1.000000000000E-006 
END OPTIONS

BEGIN DIMENSIONS
  MAXBOUND     1
END DIMENSIONS

BEGIN PERIOD      1
END PERIOD 

BEGIN PERIOD      2
     5    13    13 -1.500000000000E+005      0 'Imported_Wel_StressPeriod2_Layer5_1'  # Data Set 6: Layer Row Column Q IFACE boundname Intersected by Imported_Wel_StressPeriod2_Layer5_1 with formula: ObjectImportedValuesR("WelPump1")
END PERIOD 

