# Name File for MODFLOW created on 5/6/2024 by ModelMuse Version 5.2.0.9
BEGIN OPTIONS
  LIST MP7_Test1.lst
  PRINT_INPUT
  SAVE_FLOWS
END OPTIONS

BEGIN PACKAGES
  DIS6         MP7_Test1.dis  DIS
  IC6          MP7_Test1.ic  IC
  NPF6         MP7_Test1.npf  NPF
  STO6         MP7_Test1.sto  STO
  OC6          MP7_Test1.oc  OC
  WEL6         MP7_Test1.wel  WEL-1
  RIV6         MP7_Test1.riv  RIV-1
  RCH6         MP7_Test1.rch  RCH-1
END PACKAGES
