# Transport name file for Chem file created on 10/3/2022 by ModelMuse version 5.0.0.28.
BEGIN OPTIONS
  LIST mt3dsupp82.Chem.lst
    PRINT_INPUT
    SAVE_FLOWS
END OPTIONS

BEGIN PACKAGES
  DIS6 mt3dsupp82.Chem.dis
  OC6 mt3dsupp82.Chem.oc
  MWT6 mt3dsupp82.Chem.mwt
  FMI6 mt3dsupp82.Chem.fmi
  MVT6 mt3dsupp82.Chem.mvt
  ADV6 mt3dsupp82.Chem.adv
  DSP6 mt3dsupp82.Chem.dsp
  SSM6 mt3dsupp82.Chem.ssm
  IC6 mt3dsupp82.Chem.ic
  MST6 mt3dsupp82.Chem.mst
  CNC6 mt3dsupp82.Chem.cnc
END PACKAGES
