# CNC: GWT Constant Concentration Package file created on 10/3/2022 by ModelMuse version 5.0.0.28.
BEGIN OPTIONS
    AUXILIARY IFACE
    BOUNDNAMES
    PRINT_INPUT
    SAVE_FLOWS
END OPTIONS

BEGIN DIMENSIONS
  MAXBOUND     1
END DIMENSIONS

BEGIN PERIOD      1
     1     1     1  0.000000000000E+000      0 'Object4'  # Stress periods: Layer Row Column Conc IFACE boundname
END PERIOD 

