# FMI6 file created on 10/3/2022 by ModelMuse version 5.0.0.28.
BEGIN OPTIONS
    SAVE_FLOWS
  FLOW_IMBALANCE_CORRECTION
END OPTIONS

BEGIN PACKAGEDATA
  GWFBUDGET FILEIN mt3dsupp82.cbc
  GWFHEAD FILEIN mt3dsupp82.bhd
  GWFMOVER FILEIN mt3dsupp82.mvr_budget
  MAW-1 FILEIN mt3dsupp82.maw_bud
END PACKAGEDATA

