# MAW: Multi-Aquifer Well package file created on 7/20/2023 by ModelMuse version 5.1.1.33.
BEGIN OPTIONS
    FLOW_PACKAGE_NAME MAW-1
    FLOW_PACKAGE_AUXILIARY_NAME  Chem
    BOUNDNAMES
    PRINT_INPUT
    SAVE_FLOWS
    CONCENTRATION FILEOUT mt3dsupp82.Chem.mwt_conc
    BUDGET FILEOUT mt3dsupp82.Chem.mwt_budget
    BUDGETCSV FILEOUT mt3dsupp82.Chem.mwt_budget.csv
END OPTIONS

BEGIN PACKAGEDATA
# <mawno> <strt> [<boundname>]
     1  0.000000000000E+000  'Maw1' 
     2  0.000000000000E+000  'Maw2' 
     3  0.000000000000E+000  'Maw3' 
     4  0.000000000000E+000  'Maw4' 
END PACKAGEDATA

BEGIN PERIOD      1
# <wellno> <<mwtsetting>>
     1 STATUS ACTIVE
     1 RATE  1.000000000000E+003 
     2 STATUS ACTIVE
     2 RATE  0.000000000000E+000 
     3 STATUS ACTIVE
     3 RATE  0.000000000000E+000 
     4 STATUS ACTIVE
     4 RATE  0.000000000000E+000 
END PERIOD 

