# NPF: Node Property Flow package file created on 10/3/2022 by ModelMuse version 5.0.0.28.
BEGIN OPTIONS
    SAVE_FLOWS
  SAVE_SPECIFIC_DISCHARGE
  SAVE_SATURATION
END OPTIONS


BEGIN GRIDDATA
  ICELLTYPE LAYERED IPRN     5
    CONSTANT      0 # ICELLTYPE 1
  K LAYERED IPRN    12
    CONSTANT   1.000000000000E+001  # K 1

  K33 LAYERED IPRN    12
    CONSTANT   1.000000000000E+001  # K33 1

  K22 LAYERED IPRN    12
    CONSTANT   1.000000000000E+001  # K22 1

  angle1 LAYERED IPRN    12
    CONSTANT   0.000000000000E+000  # angle1 1

  angle2 LAYERED IPRN    12
    CONSTANT   0.000000000000E+000  # angle2 1

  angle3 LAYERED IPRN    12
    CONSTANT   0.000000000000E+000  # angle3 1

END GRIDDATA

