BEGIN OPTIONS
  PRINT_INPUT
END OPTIONS

BEGIN TIMING
  TDIS6 'mt3dsupp82.tdis'
END TIMING

BEGIN MODELS
  GWF6 'mt3dsupp82.nam' 'MODFLOW'
END MODELS

BEGIN EXCHANGES
END EXCHANGES

BEGIN SOLUTIONGROUP     1
  MXITER     1
  IMS6 'mt3dsupp82.ims' 'MODFLOW' 
END SOLUTIONGROUP

