# Name File for MODFLOW created on 12/14/2015 by ModelMuse
LIST             11 MulitHeadObsWithQuasi3DModel.lst REPLACE
DATA(BINARY)      9 MulitHeadObsWithQuasi3DModel.cbc REPLACE
DIS              12 MulitHeadObsWithQuasi3DModel.dis OLD
BAS6             13 MulitHeadObsWithQuasi3DModel.bas OLD
OC               39 MulitHeadObsWithQuasi3DModel.oc OLD
DATA             37 MulitHeadObsWithQuasi3DModel.fhd REPLACE
DATA             38 MulitHeadObsWithQuasi3DModel.fdn REPLACE
PCG              18 MulitHeadObsWithQuasi3DModel.pcg OLD
LPF              14 MulitHeadObsWithQuasi3DModel.lpf OLD
HOB              41 MulitHeadObsWithQuasi3DModel.ob_hob OLD
DATA             42 MulitHeadObsWithQuasi3DModel.hob_out REPLACE
