# Name File for MODFLOW created on 2/1/2017 by ModelMuse Version 3.8.1.27
LIST             11 ..\..\output\output.MulitHeadObsWithQuasi3DModel\MulitHeadObsWithQuasi3DModel.lst REPLACE
DATA(BINARY)      9 ..\..\output\output.MulitHeadObsWithQuasi3DModel\MulitHeadObsWithQuasi3DModel.cbc REPLACE
DIS              12 ..\..\model\model.MulitHeadObsWithQuasi3DModel\MulitHeadObsWithQuasi3DModel.dis OLD
BAS6             13 ..\..\model\model.MulitHeadObsWithQuasi3DModel\MulitHeadObsWithQuasi3DModel.bas OLD
OC               39 ..\..\model\model.MulitHeadObsWithQuasi3DModel\MulitHeadObsWithQuasi3DModel.oc OLD
DATA             37 ..\..\output\output.MulitHeadObsWithQuasi3DModel\MulitHeadObsWithQuasi3DModel.fhd REPLACE
DATA             38 ..\..\output\output.MulitHeadObsWithQuasi3DModel\MulitHeadObsWithQuasi3DModel.fdn REPLACE
PCG              18 ..\..\model\model.MulitHeadObsWithQuasi3DModel\MulitHeadObsWithQuasi3DModel.pcg OLD
LPF              14 ..\..\model\model.MulitHeadObsWithQuasi3DModel\MulitHeadObsWithQuasi3DModel.lpf OLD
HOB              41 ..\..\model\model.MulitHeadObsWithQuasi3DModel\MulitHeadObsWithQuasi3DModel.ob_hob OLD
DATA             42 ..\..\output\output.MulitHeadObsWithQuasi3DModel\MulitHeadObsWithQuasi3DModel.hob_out REPLACE
