# Name File for MODFLOW created on 12/14/2015 by ModelMuse
LIST             11 MultiSectionTest.lst REPLACE
DATA(BINARY)      9 MultiSectionTest.cbc REPLACE
DIS              12 MultiSectionTest.dis OLD
BAS6             13 MultiSectionTest.bas OLD
OC               39 MultiSectionTest.oc OLD
DATA             37 MultiSectionTest.fhd REPLACE
DATA             38 MultiSectionTest.fdn REPLACE
PCG              18 MultiSectionTest.pcg OLD
LPF              14 MultiSectionTest.lpf OLD
