# Name File for MODFLOW created on 2/1/2017 by ModelMuse Version 3.8.1.27
LIST             11 ..\..\output\output.MultiSectionTest\MultiSectionTest.lst REPLACE
DATA(BINARY)      9 ..\..\output\output.MultiSectionTest\MultiSectionTest.cbc REPLACE
DIS              12 ..\..\model\model.MultiSectionTest\MultiSectionTest.dis OLD
BAS6             13 ..\..\model\model.MultiSectionTest\MultiSectionTest.bas OLD
OC               39 ..\..\model\model.MultiSectionTest\MultiSectionTest.oc OLD
DATA             37 ..\..\output\output.MultiSectionTest\MultiSectionTest.fhd REPLACE
DATA             38 ..\..\output\output.MultiSectionTest\MultiSectionTest.fdn REPLACE
PCG              18 ..\..\model\model.MultiSectionTest\MultiSectionTest.pcg OLD
LPF              14 ..\..\model\model.MultiSectionTest\MultiSectionTest.lpf OLD
