# MAW: Multi-Aquifer Well package file created on 5/22/2024 by ModelMuse version 5.2.0.11.
BEGIN OPTIONS
  AUXILIARY Chem
    BOUNDNAMES
    PRINT_INPUT
  PRINT_HEAD
  HEAD FILEOUT MwtTimeSeries.maw_head
    TS6 FILEIN MwtTimeSeries.maw6.MyGroup.ts
    SAVE_FLOWS
  BUDGET FILEOUT MwtTimeSeries.maw_bud
  BUDGETCSV FILEOUT MwtTimeSeries.maw_bud.csv
  NO_WELL_STORAGE
  SHUTDOWN_THETA  7.000000000000E-001 
  SHUTDOWN_KAPPA  1.000000000000E-004 
  MOVER
END OPTIONS

BEGIN DIMENSIONS
  NMAWWELLS     4
END DIMENSIONS

BEGIN PACKAGEDATA
# <wellno> <radius> <bottom> <strt> <condeqn> <ngwfnodes> [<aux(naux)>] [<boundname>]
     1  1.000000000000E-002   0.000000000000E+000   0.000000000000E+000  THIEM     1  0.000000000000E+000  'Maw1' 
     2  1.000000000000E-002   0.000000000000E+000   0.000000000000E+000  THIEM     1  0.000000000000E+000  'Maw2' 
     3  1.000000000000E-002   0.000000000000E+000   0.000000000000E+000  THIEM     1  0.000000000000E+000  'Maw3' 
     4  1.000000000000E-002   0.000000000000E+000   0.000000000000E+000  THIEM     1  0.000000000000E+000  'Maw4' 
END PACKAGEDATA

BEGIN CONNECTIONDATA
# <wellno> <icon> <cellid(ncelldim)> <scrn_top> <scrn_bot> <hk_skin> <radius_skin>
     1     1     1    16    16  1.000000000000E+001   0.000000000000E+000   1.000000000000E+001   1.000000000000E-001 
     2     1     1    16    21  1.000000000000E+001   0.000000000000E+000   1.000000000000E+001   1.000000000000E-001 
     3     1     1     5    16  1.000000000000E+001   0.000000000000E+000   1.000000000000E+001   1.000000000000E-001 
     4     1     1    27    16  1.000000000000E+001   0.000000000000E+000   1.000000000000E+001   1.000000000000E-001 
END CONNECTIONDATA

BEGIN PERIOD      1
# <wellno> <mawsetting>
     1 STATUS ACTIVE
     1 RATE MAW1
     2 STATUS ACTIVE
     2 RATE -1.000000000000E+000 
     3 STATUS ACTIVE
     3 RATE  0.000000000000E+000 
     4 STATUS ACTIVE
     4 RATE  0.000000000000E+000 
END PERIOD 

