# FMI6 file created on 10/3/2022 by ModelMuse version 5.0.0.28.
BEGIN OPTIONS
    SAVE_FLOWS
  FLOW_IMBALANCE_CORRECTION
END OPTIONS

BEGIN PACKAGEDATA
  GWFBUDGET FILEIN MwtTimeSeries.cbc
  GWFHEAD FILEIN MwtTimeSeries.bhd
  GWFMOVER FILEIN MwtTimeSeries.mvr_budget
  MAW-1 FILEIN MwtTimeSeries.maw_bud
END PACKAGEDATA

