# CHD: Time-Variant Specified-Head package file created on 10/3/2022 by ModelMuse version 5.0.0.28.
BEGIN OPTIONS
    AUXILIARY IFACE Chem
    BOUNDNAMES
    PRINT_INPUT
    SAVE_FLOWS
END OPTIONS

BEGIN DIMENSIONS
  MAXBOUND    62
END DIMENSIONS

BEGIN PERIOD      1
     1     1     1  1.000000729000E+003      0  0.000000000000E+000  'Object0'  # Data Set 6: Layer Row Column Shead IFACE Chem boundname
     1     2     1  1.000000729000E+003      0  0.000000000000E+000  'Object0'  # Data Set 6: Layer Row Column Shead IFACE Chem boundname
     1     3     1  1.000000729000E+003      0  0.000000000000E+000  'Object0'  # Data Set 6: Layer Row Column Shead IFACE Chem boundname
     1     4     1  1.000000729000E+003      0  0.000000000000E+000  'Object0'  # Data Set 6: Layer Row Column Shead IFACE Chem boundname
     1     5     1  1.000000729000E+003      0  0.000000000000E+000  'Object0'  # Data Set 6: Layer Row Column Shead IFACE Chem boundname
     1     6     1  1.000000729000E+003      0  0.000000000000E+000  'Object0'  # Data Set 6: Layer Row Column Shead IFACE Chem boundname
     1     7     1  1.000000729000E+003      0  0.000000000000E+000  'Object0'  # Data Set 6: Layer Row Column Shead IFACE Chem boundname
     1     8     1  1.000000729000E+003      0  0.000000000000E+000  'Object0'  # Data Set 6: Layer Row Column Shead IFACE Chem boundname
     1     9     1  1.000000729000E+003      0  0.000000000000E+000  'Object0'  # Data Set 6: Layer Row Column Shead IFACE Chem boundname
     1    10     1  1.000000729000E+003      0  0.000000000000E+000  'Object0'  # Data Set 6: Layer Row Column Shead IFACE Chem boundname
     1    11     1  1.000000729000E+003      0  0.000000000000E+000  'Object0'  # Data Set 6: Layer Row Column Shead IFACE Chem boundname
     1    12     1  1.000000729000E+003      0  0.000000000000E+000  'Object0'  # Data Set 6: Layer Row Column Shead IFACE Chem boundname
     1    13     1  1.000000729000E+003      0  0.000000000000E+000  'Object0'  # Data Set 6: Layer Row Column Shead IFACE Chem boundname
     1    14     1  1.000000729000E+003      0  0.000000000000E+000  'Object0'  # Data Set 6: Layer Row Column Shead IFACE Chem boundname
     1    15     1  1.000000729000E+003      0  0.000000000000E+000  'Object0'  # Data Set 6: Layer Row Column Shead IFACE Chem boundname
     1    16     1  1.000000729000E+003      0  0.000000000000E+000  'Object0'  # Data Set 6: Layer Row Column Shead IFACE Chem boundname
     1    17     1  1.000000729000E+003      0  0.000000000000E+000  'Object0'  # Data Set 6: Layer Row Column Shead IFACE Chem boundname
     1    18     1  1.000000729000E+003      0  0.000000000000E+000  'Object0'  # Data Set 6: Layer Row Column Shead IFACE Chem boundname
     1    19     1  1.000000729000E+003      0  0.000000000000E+000  'Object0'  # Data Set 6: Layer Row Column Shead IFACE Chem boundname
     1    20     1  1.000000729000E+003      0  0.000000000000E+000  'Object0'  # Data Set 6: Layer Row Column Shead IFACE Chem boundname
     1    21     1  1.000000729000E+003      0  0.000000000000E+000  'Object0'  # Data Set 6: Layer Row Column Shead IFACE Chem boundname
     1    22     1  1.000000729000E+003      0  0.000000000000E+000  'Object0'  # Data Set 6: Layer Row Column Shead IFACE Chem boundname
     1    23     1  1.000000729000E+003      0  0.000000000000E+000  'Object0'  # Data Set 6: Layer Row Column Shead IFACE Chem boundname
     1    24     1  1.000000729000E+003      0  0.000000000000E+000  'Object0'  # Data Set 6: Layer Row Column Shead IFACE Chem boundname
     1    25     1  1.000000729000E+003      0  0.000000000000E+000  'Object0'  # Data Set 6: Layer Row Column Shead IFACE Chem boundname
     1    26     1  1.000000729000E+003      0  0.000000000000E+000  'Object0'  # Data Set 6: Layer Row Column Shead IFACE Chem boundname
     1    27     1  1.000000729000E+003      0  0.000000000000E+000  'Object0'  # Data Set 6: Layer Row Column Shead IFACE Chem boundname
     1    28     1  1.000000729000E+003      0  0.000000000000E+000  'Object0'  # Data Set 6: Layer Row Column Shead IFACE Chem boundname
     1    29     1  1.000000729000E+003      0  0.000000000000E+000  'Object0'  # Data Set 6: Layer Row Column Shead IFACE Chem boundname
     1    30     1  1.000000729000E+003      0  0.000000000000E+000  'Object0'  # Data Set 6: Layer Row Column Shead IFACE Chem boundname
     1    31     1  1.000000729000E+003      0  0.000000000000E+000  'Object0'  # Data Set 6: Layer Row Column Shead IFACE Chem boundname
     1     1    46  9.955000000000E+002      0  0.000000000000E+000  'Object1'  # Data Set 6: Layer Row Column Shead IFACE Chem boundname
     1     2    46  9.955000000000E+002      0  0.000000000000E+000  'Object1'  # Data Set 6: Layer Row Column Shead IFACE Chem boundname
     1     3    46  9.955000000000E+002      0  0.000000000000E+000  'Object1'  # Data Set 6: Layer Row Column Shead IFACE Chem boundname
     1     4    46  9.955000000000E+002      0  0.000000000000E+000  'Object1'  # Data Set 6: Layer Row Column Shead IFACE Chem boundname
     1     5    46  9.955000000000E+002      0  0.000000000000E+000  'Object1'  # Data Set 6: Layer Row Column Shead IFACE Chem boundname
     1     6    46  9.955000000000E+002      0  0.000000000000E+000  'Object1'  # Data Set 6: Layer Row Column Shead IFACE Chem boundname
     1     7    46  9.955000000000E+002      0  0.000000000000E+000  'Object1'  # Data Set 6: Layer Row Column Shead IFACE Chem boundname
     1     8    46  9.955000000000E+002      0  0.000000000000E+000  'Object1'  # Data Set 6: Layer Row Column Shead IFACE Chem boundname
     1     9    46  9.955000000000E+002      0  0.000000000000E+000  'Object1'  # Data Set 6: Layer Row Column Shead IFACE Chem boundname
     1    10    46  9.955000000000E+002      0  0.000000000000E+000  'Object1'  # Data Set 6: Layer Row Column Shead IFACE Chem boundname
     1    11    46  9.955000000000E+002      0  0.000000000000E+000  'Object1'  # Data Set 6: Layer Row Column Shead IFACE Chem boundname
     1    12    46  9.955000000000E+002      0  0.000000000000E+000  'Object1'  # Data Set 6: Layer Row Column Shead IFACE Chem boundname
     1    13    46  9.955000000000E+002      0  0.000000000000E+000  'Object1'  # Data Set 6: Layer Row Column Shead IFACE Chem boundname
     1    14    46  9.955000000000E+002      0  0.000000000000E+000  'Object1'  # Data Set 6: Layer Row Column Shead IFACE Chem boundname
     1    15    46  9.955000000000E+002      0  0.000000000000E+000  'Object1'  # Data Set 6: Layer Row Column Shead IFACE Chem boundname
     1    16    46  9.955000000000E+002      0  0.000000000000E+000  'Object1'  # Data Set 6: Layer Row Column Shead IFACE Chem boundname
     1    17    46  9.955000000000E+002      0  0.000000000000E+000  'Object1'  # Data Set 6: Layer Row Column Shead IFACE Chem boundname
     1    18    46  9.955000000000E+002      0  0.000000000000E+000  'Object1'  # Data Set 6: Layer Row Column Shead IFACE Chem boundname
     1    19    46  9.955000000000E+002      0  0.000000000000E+000  'Object1'  # Data Set 6: Layer Row Column Shead IFACE Chem boundname
     1    20    46  9.955000000000E+002      0  0.000000000000E+000  'Object1'  # Data Set 6: Layer Row Column Shead IFACE Chem boundname
     1    21    46  9.955000000000E+002      0  0.000000000000E+000  'Object1'  # Data Set 6: Layer Row Column Shead IFACE Chem boundname
     1    22    46  9.955000000000E+002      0  0.000000000000E+000  'Object1'  # Data Set 6: Layer Row Column Shead IFACE Chem boundname
     1    23    46  9.955000000000E+002      0  0.000000000000E+000  'Object1'  # Data Set 6: Layer Row Column Shead IFACE Chem boundname
     1    24    46  9.955000000000E+002      0  0.000000000000E+000  'Object1'  # Data Set 6: Layer Row Column Shead IFACE Chem boundname
     1    25    46  9.955000000000E+002      0  0.000000000000E+000  'Object1'  # Data Set 6: Layer Row Column Shead IFACE Chem boundname
     1    26    46  9.955000000000E+002      0  0.000000000000E+000  'Object1'  # Data Set 6: Layer Row Column Shead IFACE Chem boundname
     1    27    46  9.955000000000E+002      0  0.000000000000E+000  'Object1'  # Data Set 6: Layer Row Column Shead IFACE Chem boundname
     1    28    46  9.955000000000E+002      0  0.000000000000E+000  'Object1'  # Data Set 6: Layer Row Column Shead IFACE Chem boundname
     1    29    46  9.955000000000E+002      0  0.000000000000E+000  'Object1'  # Data Set 6: Layer Row Column Shead IFACE Chem boundname
     1    30    46  9.955000000000E+002      0  0.000000000000E+000  'Object1'  # Data Set 6: Layer Row Column Shead IFACE Chem boundname
     1    31    46  9.955000000000E+002      0  0.000000000000E+000  'Object1'  # Data Set 6: Layer Row Column Shead IFACE Chem boundname
END PERIOD 

