# TDIS file created on 1/20/2023 by ModelMuse version 5.1.1.8.

BEGIN OPTIONS
  TIME_UNITS days
END OPTIONS

BEGIN DIMENSIONS
  NPER     1
END DIMENSIONS

BEGIN PERIODDATA
    3.650000000000E+002      1  1.000000000000E+000  # perlen nstp tsmult, Stress period      1 Time =  0.000000000000E+000  -  3.650000000000E+002 
END PERIODDATA
