# Initial Conditions Package file created on 6/24/2024 by ModelMuse version 5.2.0.18.
BEGIN OPTIONS
END OPTIONS

BEGIN GRIDDATA
  STRT LAYERED IPRN    12
    CONSTANT   1.000000000000E+001  # STRT Aquifer

END GRIDDATA

