# MVR: Water Mover package file created on 10/3/2022 by ModelMuse version 5.0.0.28.
BEGIN OPTIONS
    PRINT_INPUT
    BUDGET FILEOUT MwtTimeSeries.mvr_budget
    BUDGETCSV FILEOUT MwtTimeSeries.mvr_budget.csv
END OPTIONS

BEGIN DIMENSIONS
    MAXMVR      2
    MAXPACKAGES      1
END DIMENSIONS

BEGIN PACKAGES
  MAW-1
END PACKAGES
BEGIN PERIOD      1
  MAW-1     2 MAW-1     3 FACTOR     5.000000000000E-001 
  MAW-1     2 MAW-1     4 FACTOR     5.000000000000E-001 
END PERIOD 

