# Initial concentration file for Chem file created on 3/10/2025 by ModelMuse version 5.3.1.14.
BEGIN OPTIONS
END OPTIONS

BEGIN GRIDDATA
  STRT LAYERED IPRN    12
    CONSTANT   0.000000000000E+000  # STRT 1

END GRIDDATA

