# STO: Storage package file created on 10/3/2022 by ModelMuse version 5.0.0.28.
BEGIN OPTIONS
    SAVE_FLOWS
END OPTIONS

BEGIN GRIDDATA
  ICONVERT LAYERED IPRN     5
    CONSTANT      0 # ICONVERT 1
  SS LAYERED IPRN    12
    CONSTANT   0.000000000000E+000  # SS 1

  SY LAYERED IPRN    12
    CONSTANT   0.000000000000E+000  # SY 1

END GRIDDATA

BEGIN PERIOD      1
  TRANSIENT
END PERIOD 

