# Initial concentration file for Chem file created on 10/3/2022 by ModelMuse version 5.0.0.28.
BEGIN GRIDDATA
  STRT LAYERED IPRN    12
    CONSTANT   0.000000000000E+000  # STRT Aquifer

END GRIDDATA

