# DSP: GWT Dispersion Package file created on 10/3/2022 by ModelMuse version 5.0.0.28.
BEGIN OPTIONS
  XT3D_OFF
END OPTIONS

BEGIN GRIDDATA
  DIFFC LAYERED IPRN    12
    CONSTANT   0.000000000000E+000  # DIFFC 1

  ALH LAYERED IPRN    12
    CONSTANT   1.000000000000E+001  # ALH 1

  ATH1 LAYERED IPRN    12
    CONSTANT   3.000000000000E+000  # ATH1 1

END GRIDDATA

