# Name File for MODFLOW created on 12/14/2015 by ModelMuse
LIST             11 NatNeighborTest2.lst REPLACE
DATA(BINARY)      9 NatNeighborTest2.cbc REPLACE
DIS              12 NatNeighborTest2.dis OLD
BAS6             13 NatNeighborTest2.bas OLD
OC               39 NatNeighborTest2.oc OLD
DATA             37 NatNeighborTest2.fhd REPLACE
DATA             38 NatNeighborTest2.fdn REPLACE
PCG              18 NatNeighborTest2.pcg OLD
LPF              14 NatNeighborTest2.lpf OLD
