# Name File for MODFLOW created on 2/1/2017 by ModelMuse Version 3.8.1.27
LIST             11 ..\..\output\output.NatNeighborTest2\NatNeighborTest2.lst REPLACE
DATA(BINARY)      9 ..\..\output\output.NatNeighborTest2\NatNeighborTest2.cbc REPLACE
DIS              12 ..\..\model\model.NatNeighborTest2\NatNeighborTest2.dis OLD
BAS6             13 ..\..\model\model.NatNeighborTest2\NatNeighborTest2.bas OLD
OC               39 ..\..\model\model.NatNeighborTest2\NatNeighborTest2.oc OLD
DATA             37 ..\..\output\output.NatNeighborTest2\NatNeighborTest2.fhd REPLACE
DATA             38 ..\..\output\output.NatNeighborTest2\NatNeighborTest2.fdn REPLACE
PCG              18 ..\..\model\model.NatNeighborTest2\NatNeighborTest2.pcg OLD
LPF              14 ..\..\model\model.NatNeighborTest2\NatNeighborTest2.lpf OLD
