# Name File for MODFLOW created on 2/4/2025 by ModelMuse Version 5.3.1.7
LIST             11 NwtTest1.lst REPLACE
DATA(BINARY)      9 NwtTest1.cbc REPLACE
DIS              12 NwtTest1.dis OLD
BAS6             13 NwtTest1.bas OLD
OC               39 NwtTest1.oc OLD
DATA             37 NwtTest1.fhd REPLACE
DATA             38 NwtTest1.fdn REPLACE
NWT             133 NwtTest1.nwt OLD
UPW             134 NwtTest1.upw OLD
CHD              17 NwtTest1.chd OLD
DATA            141 NwtTest1.wel_dewater.txt REPLACE
WEL              20 NwtTest1.wel OLD
DRN              22 NwtTest1.drn OLD
RCH              24 NwtTest1.rch OLD
ZONE             15 NwtTest1.zon OLD
MULT             16 NwtTest1.mlt OLD
PVAL             52 NwtTest1.pval OLD
