# Name File for MODFLOW created on 2/5/2018 by ModelMuse Version 3.9.0.29
LIST             11 NwtTest4.lst REPLACE
DATA(BINARY)      9 NwtTest4.cbc REPLACE
DIS              12 NwtTest4.dis OLD
BAS6             13 NwtTest4.bas OLD
OC               39 NwtTest4.oc OLD
DATA             37 NwtTest4.fhd REPLACE
DATA             38 NwtTest4.fdn REPLACE
NWT             133 NwtTest4.nwt OLD
UPW             134 NwtTest4.upw OLD
GHB              19 NwtTest4.ghb OLD
DATA            141 NwtTest4.wel_dewater.txt REPLACE
WEL              20 NwtTest4.wel OLD
RCH              24 NwtTest4.rch OLD
EVT              25 NwtTest4.evt OLD
SFR              29 NwtTest4.sfr OLD
DATA          20205 NwtTest4.sfrg1 REPLACE
DATA          20206 NwtTest4.sfrg2 REPLACE
DATA          20207 NwtTest4.sfrg3 REPLACE
DATA          20208 NwtTest4.sfrg4 REPLACE
DATA          20209 NwtTest4.sfrg5 REPLACE
DATA          20210 NwtTest4.sfrg6 REPLACE
DATA          20211 NwtTest4.sfrg7 REPLACE
DATA          20212 NwtTest4.sfrg8 REPLACE
DATA          20213 NwtTest4.sfrg9 REPLACE
DATA          20214 NwtTest4.sfrg10 REPLACE
DATA          20215 NwtTest4.sfrg11 REPLACE
DATA          20216 NwtTest4.sfrg12 REPLACE
GAGE             40 NwtTest4.gag OLD
