# Name File for MODFLOW created on 2/5/2018 by ModelMuse Version 3.9.0.29
LIST             11 ..\..\output\output.NwtTest3\NwtTest3.lst REPLACE
DATA(BINARY)      9 ..\..\output\output.NwtTest3\NwtTest3.cbc REPLACE
DIS              12 ..\..\model\model.NwtTest3\NwtTest3.dis OLD
BAS6             13 ..\..\model\model.NwtTest3\NwtTest3.bas OLD
OC               39 ..\..\model\model.NwtTest3\NwtTest3.oc OLD
DATA             37 ..\..\output\output.NwtTest3\NwtTest3.fhd REPLACE
DATA             38 ..\..\output\output.NwtTest3\NwtTest3.fdn REPLACE
NWT             133 ..\..\model\model.NwtTest3\NwtTest3.nwt OLD
UPW             134 ..\..\model\model.NwtTest3\NwtTest3.upw OLD
GHB              19 ..\..\model\model.NwtTest3\NwtTest3.ghb OLD
DATA            141 ..\..\output\output.NwtTest3\NwtTest3.wel_dewater.txt REPLACE
WEL              20 ..\..\model\model.NwtTest3\NwtTest3.wel OLD
RCH              24 ..\..\model\model.NwtTest3\NwtTest3.rch OLD
EVT              25 ..\..\model\model.NwtTest3\NwtTest3.evt OLD
SFR              29 ..\..\model\model.NwtTest3\NwtTest3.sfr OLD
DATA          20205 ..\..\output\output.NwtTest3\NwtTest3.sfrg1 REPLACE
DATA          20206 ..\..\output\output.NwtTest3\NwtTest3.sfrg2 REPLACE
DATA          20207 ..\..\output\output.NwtTest3\NwtTest3.sfrg3 REPLACE
DATA          20208 ..\..\output\output.NwtTest3\NwtTest3.sfrg4 REPLACE
DATA          20209 ..\..\output\output.NwtTest3\NwtTest3.sfrg5 REPLACE
DATA          20210 ..\..\output\output.NwtTest3\NwtTest3.sfrg6 REPLACE
DATA          20211 ..\..\output\output.NwtTest3\NwtTest3.sfrg7 REPLACE
DATA          20212 ..\..\output\output.NwtTest3\NwtTest3.sfrg8 REPLACE
DATA          20213 ..\..\output\output.NwtTest3\NwtTest3.sfrg9 REPLACE
DATA          20214 ..\..\output\output.NwtTest3\NwtTest3.sfrg10 REPLACE
DATA          20215 ..\..\output\output.NwtTest3\NwtTest3.sfrg11 REPLACE
DATA          20216 ..\..\output\output.NwtTest3\NwtTest3.sfrg12 REPLACE
GAGE             40 ..\..\model\model.NwtTest3\NwtTest3.gag OLD
