# Name File for MODFLOW created on 2/5/2018 by ModelMuse Version 3.9.0.29
LIST             11 NwtTest3.lst REPLACE
DATA(BINARY)      9 NwtTest3.cbc REPLACE
DIS              12 NwtTest3.dis OLD
BAS6             13 NwtTest3.bas OLD
OC               39 NwtTest3.oc OLD
DATA             37 NwtTest3.fhd REPLACE
DATA             38 NwtTest3.fdn REPLACE
NWT             133 NwtTest3.nwt OLD
UPW             134 NwtTest3.upw OLD
GHB              19 NwtTest3.ghb OLD
DATA            141 NwtTest3.wel_dewater.txt REPLACE
WEL              20 NwtTest3.wel OLD
RCH              24 NwtTest3.rch OLD
EVT              25 NwtTest3.evt OLD
SFR              29 NwtTest3.sfr OLD
DATA          20205 NwtTest3.sfrg1 REPLACE
DATA          20206 NwtTest3.sfrg2 REPLACE
DATA          20207 NwtTest3.sfrg3 REPLACE
DATA          20208 NwtTest3.sfrg4 REPLACE
DATA          20209 NwtTest3.sfrg5 REPLACE
DATA          20210 NwtTest3.sfrg6 REPLACE
DATA          20211 NwtTest3.sfrg7 REPLACE
DATA          20212 NwtTest3.sfrg8 REPLACE
DATA          20213 NwtTest3.sfrg9 REPLACE
DATA          20214 NwtTest3.sfrg10 REPLACE
DATA          20215 NwtTest3.sfrg11 REPLACE
DATA          20216 NwtTest3.sfrg12 REPLACE
GAGE             40 NwtTest3.gag OLD
