# Name File for MODFLOW created on 2/5/2018 by ModelMuse Version 3.9.0.29
LIST             11 ..\..\output\output.NwtTest1\NwtTest1.lst REPLACE
DATA(BINARY)      9 ..\..\output\output.NwtTest1\NwtTest1.cbc REPLACE
DIS              12 ..\..\model\model.NwtTest1\NwtTest1.dis OLD
BAS6             13 ..\..\model\model.NwtTest1\NwtTest1.bas OLD
OC               39 ..\..\model\model.NwtTest1\NwtTest1.oc OLD
DATA             37 ..\..\output\output.NwtTest1\NwtTest1.fhd REPLACE
DATA             38 ..\..\output\output.NwtTest1\NwtTest1.fdn REPLACE
NWT             133 ..\..\model\model.NwtTest1\NwtTest1.nwt OLD
UPW             134 ..\..\model\model.NwtTest1\NwtTest1.upw OLD
CHD              17 ..\..\model\model.NwtTest1\NwtTest1.chd OLD
DATA            141 ..\..\output\output.NwtTest1\NwtTest1.wel_dewater.txt REPLACE
WEL              20 ..\..\model\model.NwtTest1\NwtTest1.wel OLD
DRN              22 ..\..\model\model.NwtTest1\NwtTest1.drn OLD
RCH              24 ..\..\model\model.NwtTest1\NwtTest1.rch OLD
ZONE             15 ..\..\model\model.NwtTest1\NwtTest1.zon OLD
MULT             16 ..\..\model\model.NwtTest1\NwtTest1.mlt OLD
PVAL             52 ..\..\model\model.NwtTest1\NwtTest1.pval OLD
