# Name File for MODFLOW created on 2/5/2018 by ModelMuse Version 3.9.0.29
LIST             11 NwtTest2.lst REPLACE
DATA(BINARY)      9 NwtTest2.cbc REPLACE
DIS              12 NwtTest2.dis OLD
BAS6             13 NwtTest2.bas OLD
OC               39 NwtTest2.oc OLD
DATA             37 NwtTest2.fhd REPLACE
DATA             38 NwtTest2.fdn REPLACE
NWT             133 NwtTest2.nwt OLD
UPW             134 NwtTest2.upw OLD
GHB              19 NwtTest2.ghb OLD
DATA            141 NwtTest2.wel_dewater.txt REPLACE
WEL              20 NwtTest2.wel OLD
RCH              24 NwtTest2.rch OLD
EVT              25 NwtTest2.evt OLD
SFR              29 NwtTest2.sfr OLD
DATA          20205 NwtTest2.sfrg1 REPLACE
DATA          20206 NwtTest2.sfrg2 REPLACE
DATA          20207 NwtTest2.sfrg3 REPLACE
DATA          20208 NwtTest2.sfrg4 REPLACE
DATA          20209 NwtTest2.sfrg5 REPLACE
DATA          20210 NwtTest2.sfrg6 REPLACE
DATA          20211 NwtTest2.sfrg7 REPLACE
DATA          20212 NwtTest2.sfrg8 REPLACE
DATA          20213 NwtTest2.sfrg9 REPLACE
DATA          20214 NwtTest2.sfrg10 REPLACE
DATA          20215 NwtTest2.sfrg11 REPLACE
DATA          20216 NwtTest2.sfrg12 REPLACE
GAGE             40 NwtTest2.gag OLD
