# Name File for MODFLOW created on 2/5/2018 by ModelMuse Version 3.9.0.29
LIST             11 NwtTest5.lst REPLACE
DATA(BINARY)      9 NwtTest5.cbc REPLACE
DIS              12 NwtTest5.dis OLD
BAS6             13 NwtTest5.bas OLD
OC               39 NwtTest5.oc OLD
DATA             37 NwtTest5.fhd REPLACE
DATA             38 NwtTest5.fdn REPLACE
NWT             133 NwtTest5.nwt OLD
UPW             134 NwtTest5.upw OLD
GHB              19 NwtTest5.ghb OLD
DATA            141 NwtTest5.wel_dewater.txt REPLACE
WEL              20 NwtTest5.wel OLD
RCH              24 NwtTest5.rch OLD
EVT              25 NwtTest5.evt OLD
SFR              29 NwtTest5.sfr OLD
DATA          20205 NwtTest5.sfrg1 REPLACE
DATA          20206 NwtTest5.sfrg2 REPLACE
DATA          20207 NwtTest5.sfrg3 REPLACE
DATA          20208 NwtTest5.sfrg4 REPLACE
DATA          20209 NwtTest5.sfrg5 REPLACE
DATA          20210 NwtTest5.sfrg6 REPLACE
DATA          20211 NwtTest5.sfrg7 REPLACE
DATA          20212 NwtTest5.sfrg8 REPLACE
DATA          20213 NwtTest5.sfrg9 REPLACE
DATA          20214 NwtTest5.sfrg10 REPLACE
DATA          20215 NwtTest5.sfrg11 REPLACE
DATA          20216 NwtTest5.sfrg12 REPLACE
GAGE             40 NwtTest5.gag OLD
