# Name File for MODFLOW created on 2/1/2017 by ModelMuse Version 3.8.1.27
LIST             11 ..\..\output\output.ObjectIntersectLength\ObjectIntersectLength.lst REPLACE
DATA(BINARY)      9 ..\..\output\output.ObjectIntersectLength\ObjectIntersectLength.cbc REPLACE
DIS              12 ..\..\model\model.ObjectIntersectLength\ObjectIntersectLength.dis OLD
BAS6             13 ..\..\model\model.ObjectIntersectLength\ObjectIntersectLength.bas OLD
OC               39 ..\..\model\model.ObjectIntersectLength\ObjectIntersectLength.oc OLD
DATA             37 ..\..\output\output.ObjectIntersectLength\ObjectIntersectLength.fhd REPLACE
DATA             38 ..\..\output\output.ObjectIntersectLength\ObjectIntersectLength.fdn REPLACE
PCG              18 ..\..\model\model.ObjectIntersectLength\ObjectIntersectLength.pcg OLD
LPF              14 ..\..\model\model.ObjectIntersectLength\ObjectIntersectLength.lpf OLD
