# Name File for MODFLOW created on 12/14/2015 by ModelMuse
LIST             11 ObjectIntersectLength.lst REPLACE
DATA(BINARY)      9 ObjectIntersectLength.cbc REPLACE
DIS              12 ObjectIntersectLength.dis OLD
BAS6             13 ObjectIntersectLength.bas OLD
OC               39 ObjectIntersectLength.oc OLD
DATA             37 ObjectIntersectLength.fhd REPLACE
DATA             38 ObjectIntersectLength.fdn REPLACE
PCG              18 ObjectIntersectLength.pcg OLD
LPF              14 ObjectIntersectLength.lpf OLD
