# Name File for MODFLOW created on 12/14/2015 by ModelMuse
LIST             11 ObservationTest5.lst REPLACE
DATA(BINARY)      9 ObservationTest5.cbc REPLACE
DIS              12 ObservationTest5.dis OLD
BAS6             13 ObservationTest5.bas OLD
OC               39 ObservationTest5.oc OLD
DATA             37 ObservationTest5.fhd REPLACE
DATA             38 ObservationTest5.fdn REPLACE
PCG              18 ObservationTest5.pcg OLD
LPF              14 ObservationTest5.lpf OLD
CHD              17 ObservationTest5.chd OLD
GHB              19 ObservationTest5.ghb OLD
RIV              21 ObservationTest5.riv OLD
DRN              22 ObservationTest5.drn OLD
HOB              41 ObservationTest5.ob_hob OLD
DATA             42 ObservationTest5.hob_out REPLACE
PVAL             52 ObservationTest5.pval OLD
