# Name File for MODFLOW created on 12/14/2015 by ModelMuse
LIST             11 ObservationTest3.lst REPLACE
DATA(BINARY)      9 ObservationTest3.cbc REPLACE
DIS              12 ObservationTest3.dis OLD
BAS6             13 ObservationTest3.bas OLD
OC               39 ObservationTest3.oc OLD
DATA             37 ObservationTest3.fhd REPLACE
DATA             38 ObservationTest3.fdn REPLACE
PCG              18 ObservationTest3.pcg OLD
LPF              14 ObservationTest3.lpf OLD
CHD              17 ObservationTest3.chd OLD
CHOB             50 ObservationTest3.ob_chob OLD
DATA             51 ObservationTest3.chob_out REPLACE
GHB              19 ObservationTest3.ghb OLD
GBOB             46 ObservationTest3.ob_gbob OLD
DATA             47 ObservationTest3.gbob_out REPLACE
RIV              21 ObservationTest3.riv OLD
RVOB             48 ObservationTest3.ob_rvob OLD
DATA             49 ObservationTest3.rvob_out REPLACE
DRN              22 ObservationTest3.drn OLD
DROB             44 ObservationTest3.ob_drob OLD
DATA             45 ObservationTest3.drob_out REPLACE
HOB              41 ObservationTest3.ob_hob OLD
DATA             42 ObservationTest3.hob_out REPLACE
PVAL             52 ObservationTest3.pval OLD
