# Name File for MODFLOW created on 2/1/2017 by ModelMuse Version 3.8.1.27
LIST             11 ..\..\output\output.ObservationTest3\ObservationTest3.lst REPLACE
DATA(BINARY)      9 ..\..\output\output.ObservationTest3\ObservationTest3.cbc REPLACE
DIS              12 ..\..\model\model.ObservationTest3\ObservationTest3.dis OLD
BAS6             13 ..\..\model\model.ObservationTest3\ObservationTest3.bas OLD
OC               39 ..\..\model\model.ObservationTest3\ObservationTest3.oc OLD
DATA             37 ..\..\output\output.ObservationTest3\ObservationTest3.fhd REPLACE
DATA             38 ..\..\output\output.ObservationTest3\ObservationTest3.fdn REPLACE
PCG              18 ..\..\model\model.ObservationTest3\ObservationTest3.pcg OLD
LPF              14 ..\..\model\model.ObservationTest3\ObservationTest3.lpf OLD
CHD              17 ..\..\model\model.ObservationTest3\ObservationTest3.chd OLD
CHOB             50 ..\..\model\model.ObservationTest3\ObservationTest3.ob_chob OLD
DATA             51 ..\..\output\output.ObservationTest3\ObservationTest3.chob_out REPLACE
GHB              19 ..\..\model\model.ObservationTest3\ObservationTest3.ghb OLD
GBOB             46 ..\..\model\model.ObservationTest3\ObservationTest3.ob_gbob OLD
DATA             47 ..\..\output\output.ObservationTest3\ObservationTest3.gbob_out REPLACE
RIV              21 ..\..\model\model.ObservationTest3\ObservationTest3.riv OLD
RVOB             48 ..\..\model\model.ObservationTest3\ObservationTest3.ob_rvob OLD
DATA             49 ..\..\output\output.ObservationTest3\ObservationTest3.rvob_out REPLACE
DRN              22 ..\..\model\model.ObservationTest3\ObservationTest3.drn OLD
DROB             44 ..\..\model\model.ObservationTest3\ObservationTest3.ob_drob OLD
DATA             45 ..\..\output\output.ObservationTest3\ObservationTest3.drob_out REPLACE
HOB              41 ..\..\model\model.ObservationTest3\ObservationTest3.ob_hob OLD
DATA             42 ..\..\output\output.ObservationTest3\ObservationTest3.hob_out REPLACE
PVAL             52 ..\..\model\model.ObservationTest3\ObservationTest3.pval OLD
