# Name File for MODFLOW created on 12/14/2015 by ModelMuse
LIST             11 ObservationTest.lst REPLACE
DATA(BINARY)      9 ObservationTest.cbc REPLACE
DIS              12 ObservationTest.dis OLD
BAS6             13 ObservationTest.bas OLD
OC               39 ObservationTest.oc OLD
DATA             37 ObservationTest.fhd REPLACE
DATA             38 ObservationTest.fdn REPLACE
PCG              18 ObservationTest.pcg OLD
LPF              14 ObservationTest.lpf OLD
CHD              17 ObservationTest.chd OLD
CHOB             50 ObservationTest.ob_chob OLD
DATA             51 ObservationTest.chob_out REPLACE
GHB              19 ObservationTest.ghb OLD
GBOB             46 ObservationTest.ob_gbob OLD
DATA             47 ObservationTest.gbob_out REPLACE
RIV              21 ObservationTest.riv OLD
RVOB             48 ObservationTest.ob_rvob OLD
DATA             49 ObservationTest.rvob_out REPLACE
DRN              22 ObservationTest.drn OLD
DROB             44 ObservationTest.ob_drob OLD
DATA             45 ObservationTest.drob_out REPLACE
PVAL             52 ObservationTest.pval OLD
