# Name File for MODFLOW created on 12/14/2015 by ModelMuse
LIST             11 ObservationTest4.lst REPLACE
DATA(BINARY)      9 ObservationTest4.cbc REPLACE
DIS              12 ObservationTest4.dis OLD
BAS6             13 ObservationTest4.bas OLD
OC               39 ObservationTest4.oc OLD
DATA             37 ObservationTest4.fhd REPLACE
DATA             38 ObservationTest4.fdn REPLACE
PCG              18 ObservationTest4.pcg OLD
LPF              14 ObservationTest4.lpf OLD
CHD              17 ObservationTest4.chd OLD
CHOB             50 ObservationTest4.ob_chob OLD
DATA             51 ObservationTest4.chob_out REPLACE
GHB              19 ObservationTest4.ghb OLD
GBOB             46 ObservationTest4.ob_gbob OLD
DATA             47 ObservationTest4.gbob_out REPLACE
RIV              21 ObservationTest4.riv OLD
RVOB             48 ObservationTest4.ob_rvob OLD
DATA             49 ObservationTest4.rvob_out REPLACE
DRN              22 ObservationTest4.drn OLD
DROB             44 ObservationTest4.ob_drob OLD
DATA             45 ObservationTest4.drob_out REPLACE
HOB              41 ObservationTest4.ob_hob OLD
DATA             42 ObservationTest4.hob_out REPLACE
PVAL             52 ObservationTest4.pval OLD
