# Name File for MODFLOW created on 2/1/2017 by ModelMuse Version 3.8.1.27
LIST             11 ..\..\output\output.ObservationTest5\ObservationTest5.lst REPLACE
DATA(BINARY)      9 ..\..\output\output.ObservationTest5\ObservationTest5.cbc REPLACE
DIS              12 ..\..\model\model.ObservationTest5\ObservationTest5.dis OLD
BAS6             13 ..\..\model\model.ObservationTest5\ObservationTest5.bas OLD
OC               39 ..\..\model\model.ObservationTest5\ObservationTest5.oc OLD
DATA             37 ..\..\output\output.ObservationTest5\ObservationTest5.fhd REPLACE
DATA             38 ..\..\output\output.ObservationTest5\ObservationTest5.fdn REPLACE
PCG              18 ..\..\model\model.ObservationTest5\ObservationTest5.pcg OLD
LPF              14 ..\..\model\model.ObservationTest5\ObservationTest5.lpf OLD
CHD              17 ..\..\model\model.ObservationTest5\ObservationTest5.chd OLD
GHB              19 ..\..\model\model.ObservationTest5\ObservationTest5.ghb OLD
RIV              21 ..\..\model\model.ObservationTest5\ObservationTest5.riv OLD
DRN              22 ..\..\model\model.ObservationTest5\ObservationTest5.drn OLD
HOB              41 ..\..\model\model.ObservationTest5\ObservationTest5.ob_hob OLD
DATA             42 ..\..\output\output.ObservationTest5\ObservationTest5.hob_out REPLACE
PVAL             52 ..\..\model\model.ObservationTest5\ObservationTest5.pval OLD
