# Name File for MODFLOW created on 12/14/2015 by ModelMuse
LIST             11 ObservationTest2.lst REPLACE
DATA(BINARY)      9 ObservationTest2.cbc REPLACE
DIS              12 ObservationTest2.dis OLD
BAS6             13 ObservationTest2.bas OLD
OC               39 ObservationTest2.oc OLD
DATA             37 ObservationTest2.fhd REPLACE
DATA             38 ObservationTest2.fdn REPLACE
PCG              18 ObservationTest2.pcg OLD
LPF              14 ObservationTest2.lpf OLD
CHD              17 ObservationTest2.chd OLD
CHOB             50 ObservationTest2.ob_chob OLD
DATA             51 ObservationTest2.chob_out REPLACE
GHB              19 ObservationTest2.ghb OLD
GBOB             46 ObservationTest2.ob_gbob OLD
DATA             47 ObservationTest2.gbob_out REPLACE
RIV              21 ObservationTest2.riv OLD
RVOB             48 ObservationTest2.ob_rvob OLD
DATA             49 ObservationTest2.rvob_out REPLACE
DRN              22 ObservationTest2.drn OLD
DROB             44 ObservationTest2.ob_drob OLD
DATA             45 ObservationTest2.drob_out REPLACE
HOB              41 ObservationTest2.ob_hob OLD
DATA             42 ObservationTest2.hob_out REPLACE
PVAL             52 ObservationTest2.pval OLD
