# Output Control file created on 7/9/2020 by ModelMuse version 4.2.0.25.
BEGIN OPTIONS
  BUDGET FILEOUT 'ParamMf6Test.cbc'
  HEAD FILEOUT 'ParamMf6Test.bhd'
END OPTIONS

BEGIN PERIOD      1
  SAVE HEAD ALL
  PRINT BUDGET ALL
  SAVE BUDGET ALL
END PERIOD 

BEGIN PERIOD      2
  SAVE HEAD ALL
  PRINT BUDGET ALL
  SAVE BUDGET ALL
END PERIOD 

