# Name File for MODFLOW created on 7/9/2020 by ModelMuse Version 4.2.0.25
BEGIN OPTIONS
  LIST ..\..\output\output.ParamMf6Test\ParamMf6Test.lst
  PRINT_INPUT
  SAVE_FLOWS
END OPTIONS

BEGIN PACKAGES
  DIS6         ..\..\model\model.ParamMf6Test\ParamMf6Test.dis
  IC6          ..\..\model\model.ParamMf6Test\ParamMf6Test.ic
  NPF6         ..\..\model\model.ParamMf6Test\ParamMf6Test.npf
  STO6         ..\..\model\model.ParamMf6Test\ParamMf6Test.sto
  OC6          ..\..\model\model.ParamMf6Test\ParamMf6Test.oc
  CHD6         ..\..\model\model.ParamMf6Test\ParamMf6Test.chd
  GHB6         ..\..\model\model.ParamMf6Test\ParamMf6Test.ghb
  WEL6         ..\..\model\model.ParamMf6Test\ParamMf6Test.wel
  RIV6         ..\..\model\model.ParamMf6Test\ParamMf6Test.riv
  DRN6         ..\..\model\model.ParamMf6Test\ParamMf6Test.drn
  RCH6         ..\..\model\model.ParamMf6Test\ParamMf6Test.rch
  EVT6         ..\..\model\model.ParamMf6Test\ParamMf6Test.evt
END PACKAGES
