# Name File for MODFLOW created on 12/3/2021 by ModelMuse Version 4.3.0.74
BEGIN OPTIONS
  LIST ParamMf6Test.lst
  PRINT_INPUT
  SAVE_FLOWS
END OPTIONS

BEGIN PACKAGES
  DIS6         ParamMf6Test.dis  DIS
  IC6          ParamMf6Test.ic  IC
  NPF6         ParamMf6Test.npf  NPF
  STO6         ParamMf6Test.sto  STO
  OC6          ParamMf6Test.oc  OC
  CHD6         ParamMf6Test.chd  CHD-1
  GHB6         ParamMf6Test.ghb  GHB-1
  WEL6         ParamMf6Test.wel  WEL-1
  RIV6         ParamMf6Test.riv  RIV-1
  DRN6         ParamMf6Test.drn  DRN-1
  RCH6         ParamMf6Test.rch  RCH-1
  EVT6         ParamMf6Test.evt  EVT-1
END PACKAGES
