# CHD: Time-Variant Specified-Head package file created on 7/9/2020 by ModelMuse version 4.2.0.25.
BEGIN OPTIONS
    AUXILIARY IFACE
    BOUNDNAMES
    PRINT_INPUT
    SAVE_FLOWS
END OPTIONS

BEGIN DIMENSIONS
  MAXBOUND     4
END DIMENSIONS

BEGIN PERIOD      1
     1     1     1  1.000000000000E+000      0 'Object0'  # Data Set 6: Layer Row Column Shead IFACE boundname
     1     1    10  1.000000000000E+000      0 'Object1'  # Data Set 6: Layer Row Column Shead IFACE boundname
     1     7    10  4.000000000000E+000      0 'Object2'  # Data Set 6: Layer Row Column Shead IFACE boundname
     1    10    10  1.000000000000E+001      0 'Object3'  # Data Set 6: Layer Row Column Shead IFACE boundname
END PERIOD 

BEGIN PERIOD      2
     1     1    10  1.000000000000E+000      0 'Object1'  # Data Set 6: Layer Row Column Shead IFACE boundname
     1     7    10  6.000000000000E+000      0 'Object2'  # Data Set 6: Layer Row Column Shead IFACE boundname
END PERIOD 

