# Name File for MODFLOW created on 2/1/2017 by ModelMuse Version 3.8.1.27
LIST             11 ..\..\output\output.PcgnTest\PcgnTest.lst REPLACE
DATA(BINARY)      9 ..\..\output\output.PcgnTest\PcgnTest.cbc REPLACE
DIS              12 ..\..\model\model.PcgnTest\PcgnTest.dis OLD
BAS6             13 ..\..\model\model.PcgnTest\PcgnTest.bas OLD
OC               39 ..\..\model\model.PcgnTest\PcgnTest.oc OLD
DATA             37 ..\..\output\output.PcgnTest\PcgnTest.fhd REPLACE
DATA             38 ..\..\output\output.PcgnTest\PcgnTest.fdn REPLACE
PCGN            137 ..\..\model\model.PcgnTest\PcgnTest.pcgn OLD
DATA            138 ..\..\output\output.PcgnTest\PcgnTest.pcgn_pc REPLACE
DATA            139 ..\..\output\output.PcgnTest\PcgnTest.pcgn_ts REPLACE
LPF              14 ..\..\model\model.PcgnTest\PcgnTest.lpf OLD
CHD              17 ..\..\model\model.PcgnTest\PcgnTest.chd OLD
PVAL             52 ..\..\model\model.PcgnTest\PcgnTest.pval OLD
