# Name File for MODFLOW created on 12/14/2015 by ModelMuse
LIST             11 PcgnTest.lst REPLACE
DATA(BINARY)      9 PcgnTest.cbc REPLACE
DIS              12 PcgnTest.dis OLD
BAS6             13 PcgnTest.bas OLD
OC               39 PcgnTest.oc OLD
DATA             37 PcgnTest.fhd REPLACE
DATA             38 PcgnTest.fdn REPLACE
PCGN            137 PcgnTest.pcgn OLD
DATA            138 PcgnTest.pcgn_pc REPLACE
DATA            139 PcgnTest.pcgn_ts REPLACE
LPF              14 PcgnTest.lpf OLD
CHD              17 PcgnTest.chd OLD
PVAL             52 PcgnTest.pval OLD
