# Name File for MODFLOW created on 12/14/2015 by ModelMuse
LIST             11 PointInvDistBug.lst REPLACE
DATA(BINARY)      9 PointInvDistBug.cbc REPLACE
DIS              12 PointInvDistBug.dis OLD
BAS6             13 PointInvDistBug.bas OLD
OC               39 PointInvDistBug.oc OLD
DATA             37 PointInvDistBug.fhd REPLACE
DATA             38 PointInvDistBug.fdn REPLACE
PCG              18 PointInvDistBug.pcg OLD
LPF              14 PointInvDistBug.lpf OLD
