# Name File for MODFLOW created on 2/1/2017 by ModelMuse Version 3.8.1.27
LIST             11 ..\..\output\output.PointInvDistBug\PointInvDistBug.lst REPLACE
DATA(BINARY)      9 ..\..\output\output.PointInvDistBug\PointInvDistBug.cbc REPLACE
DIS              12 ..\..\model\model.PointInvDistBug\PointInvDistBug.dis OLD
BAS6             13 ..\..\model\model.PointInvDistBug\PointInvDistBug.bas OLD
OC               39 ..\..\model\model.PointInvDistBug\PointInvDistBug.oc OLD
DATA             37 ..\..\output\output.PointInvDistBug\PointInvDistBug.fhd REPLACE
DATA             38 ..\..\output\output.PointInvDistBug\PointInvDistBug.fdn REPLACE
PCG              18 ..\..\model\model.PointInvDistBug\PointInvDistBug.pcg OLD
LPF              14 ..\..\model\model.PointInvDistBug\PointInvDistBug.lpf OLD
