# Name File for MODFLOW created on 11/16/2020 by ModelMuse Version 4.3.0.0
LIST             11 ProfileTest.lst REPLACE
DATA(BINARY)      9 ProfileTest.cbc REPLACE
DIS              12 ProfileTest.dis OLD
BAS6             13 ProfileTest.bas OLD
OC               39 ProfileTest.oc OLD
DATA(BINARY)     37 ProfileTest.bhd REPLACE
DATA             38 ProfileTest.fdn REPLACE
PCG              18 ProfileTest.pcg OLD
LPF              14 ProfileTest.lpf OLD
CHD              17 ProfileTest.chd OLD
