# Name File for MODFLOW created on 11/16/2020 by ModelMuse Version 4.3.0.0
LIST             11 ..\..\output\output.ProfileTest\ProfileTest.lst REPLACE
DATA(BINARY)      9 ..\..\output\output.ProfileTest\ProfileTest.cbc REPLACE
DIS              12 ..\..\model\model.ProfileTest\ProfileTest.dis OLD
BAS6             13 ..\..\model\model.ProfileTest\ProfileTest.bas OLD
OC               39 ..\..\model\model.ProfileTest\ProfileTest.oc OLD
DATA(BINARY)     37 ..\..\output\output.ProfileTest\ProfileTest.bhd REPLACE
DATA             38 ..\..\output\output.ProfileTest\ProfileTest.fdn REPLACE
PCG              18 ..\..\model\model.ProfileTest\ProfileTest.pcg OLD
LPF              14 ..\..\model\model.ProfileTest\ProfileTest.lpf OLD
CHD              17 ..\..\model\model.ProfileTest\ProfileTest.chd OLD
