BEGIN TIMING
  TDIS6 'Prudic2004t2.Chem.tdis'
END TIMING

BEGIN MODELS
  GWT6 'Prudic2004t2.Chem.Gwt_nam' 'Chem'
END MODELS

BEGIN EXCHANGES
END EXCHANGES

BEGIN SOLUTIONGROUP     1
  MXITER     1
  IMS6 'Prudic2004t2.Chem.ims' 'Chem' 
END SOLUTIONGROUP

