# LAK: Lake package for MODFLOW 6 file created on 7/20/2023 by ModelMuse version 5.1.1.33.
BEGIN OPTIONS
    FLOW_PACKAGE_NAME LAK-1
    FLOW_PACKAGE_AUXILIARY_NAME  Chem
    BOUNDNAMES
    PRINT_INPUT
    SAVE_FLOWS
    CONCENTRATION FILEOUT Prudic2004t2.Chem.lkt_conc
    BUDGET FILEOUT Prudic2004t2.Chem.lkt_budget
    BUDGETCSV FILEOUT Prudic2004t2.Chem.lkt_budget.csv
    OBS6 FILEIN Prudic2004t2.Chem.ob_lkt
END OPTIONS

BEGIN PACKAGEDATA
# <lakeno> <strt> <boundname>
       1  0.000000000000E+000  'Lake1' 
       2  0.000000000000E+000  'Lake2' 
END PACKAGEDATA

BEGIN PERIOD      1
     1 STATUS ACTIVE
     1 RAINFALL  0.000000000000E+000 
     1 EVAPORATION  0.000000000000E+000 
     1 RUNOFF  0.000000000000E+000 
     1 EXT-INFLOW  0.000000000000E+000 

     2 STATUS ACTIVE
     2 RAINFALL  0.000000000000E+000 
     2 EVAPORATION  0.000000000000E+000 
     2 RUNOFF  0.000000000000E+000 
     2 EXT-INFLOW  0.000000000000E+000 

END PERIOD 

