# MVR: Water Mover package file created on 10/3/2022 by ModelMuse version 5.0.0.28.
BEGIN OPTIONS
    PRINT_INPUT
    BUDGET FILEOUT Prudic2004t2.mvr_budget
    BUDGETCSV FILEOUT Prudic2004t2.mvr_budget.csv
END OPTIONS

BEGIN DIMENSIONS
    MAXMVR      2
    MAXPACKAGES      2
END DIMENSIONS

BEGIN PACKAGES
  LAK-1
  SFR-1
END PACKAGES
BEGIN PERIOD      1
  SFR-1     6 LAK-1     1 FACTOR     1.000000000000E+000 
  LAK-1     1 SFR-1     7 FACTOR     1.000000000000E+000 
END PERIOD 

