# IMS: Iterative Model Solution file created on 10/3/2022 by ModelMuse version 5.0.0.28.
BEGIN OPTIONS
  PRINT_OPTION SUMMARY
  COMPLEXITY SIMPLE
  CSV_OUTER_OUTPUT FILEOUT Prudic2004t2.OuterSolution.CSV
  CSV_INNER_OUTPUT FILEOUT Prudic2004t2.InnerSolution.CSV
  ATS_OUTER_MAXIMUM_FRACTION  3.333333333333E-001 
END OPTIONS

BEGIN NONLINEAR
  OUTER_DVCLOSE   1.000000000000E-002 
  OUTER_MAXIMUM   1000
  UNDER_RELAXATION NONE
  BACKTRACKING_NUMBER     0
END NONLINEAR

BEGIN LINEAR
  INNER_MAXIMUM    50
  INNER_DVCLOSE  1.000000000000E-002 
  INNER_RCLOSE  1.000000000000E-001 
  LINEAR_ACCELERATION CG
  RELAXATION_FACTOR  9.900000000000E-001 
END LINEAR

