# DSP: GWT Dispersion Package file created on 10/3/2022 by ModelMuse version 5.0.0.28.
BEGIN OPTIONS
END OPTIONS

BEGIN GRIDDATA
  DIFFC LAYERED IPRN    12
    CONSTANT   0.000000000000E+000  # DIFFC 1

    CONSTANT   0.000000000000E+000  # DIFFC 2

    CONSTANT   0.000000000000E+000  # DIFFC 3

    CONSTANT   0.000000000000E+000  # DIFFC 4

    CONSTANT   0.000000000000E+000  # DIFFC 5

    CONSTANT   0.000000000000E+000  # DIFFC 6

    CONSTANT   0.000000000000E+000  # DIFFC 7

    CONSTANT   0.000000000000E+000  # DIFFC 8

  ALH LAYERED IPRN    12
    CONSTANT   2.000000000000E+001  # ALH 1

    CONSTANT   2.000000000000E+001  # ALH 2

    CONSTANT   2.000000000000E+001  # ALH 3

    CONSTANT   2.000000000000E+001  # ALH 4

    CONSTANT   2.000000000000E+001  # ALH 5

    CONSTANT   2.000000000000E+001  # ALH 6

    CONSTANT   2.000000000000E+001  # ALH 7

    CONSTANT   2.000000000000E+001  # ALH 8

  ATH1 LAYERED IPRN    12
    CONSTANT   2.000000000000E+000  # ATH1 1

    CONSTANT   2.000000000000E+000  # ATH1 2

    CONSTANT   2.000000000000E+000  # ATH1 3

    CONSTANT   2.000000000000E+000  # ATH1 4

    CONSTANT   2.000000000000E+000  # ATH1 5

    CONSTANT   2.000000000000E+000  # ATH1 6

    CONSTANT   2.000000000000E+000  # ATH1 7

    CONSTANT   2.000000000000E+000  # ATH1 8

  ATH2 LAYERED IPRN    12
    CONSTANT   2.000000000000E-001  # ATH2 1

    CONSTANT   2.000000000000E-001  # ATH2 2

    CONSTANT   2.000000000000E-001  # ATH2 3

    CONSTANT   2.000000000000E-001  # ATH2 4

    CONSTANT   2.000000000000E-001  # ATH2 5

    CONSTANT   2.000000000000E-001  # ATH2 6

    CONSTANT   2.000000000000E-001  # ATH2 7

    CONSTANT   2.000000000000E-001  # ATH2 8

END GRIDDATA

