BEGIN TIMING
  TDIS6 'Prudic2004t2.tdis'
END TIMING

BEGIN MODELS
  GWF6 'Prudic2004t2.nam' 'MODFLOW'
END MODELS

BEGIN EXCHANGES
END EXCHANGES

BEGIN SOLUTIONGROUP     1
  MXITER     1
  IMS6 'Prudic2004t2.ims' 'MODFLOW' 
END SOLUTIONGROUP

