# Initial concentration file for Chem file created on 3/10/2025 by ModelMuse version 5.3.1.14.
BEGIN OPTIONS
END OPTIONS

BEGIN GRIDDATA
  STRT LAYERED IPRN    12
    CONSTANT   0.000000000000E+000  # STRT 1

    CONSTANT   0.000000000000E+000  # STRT 2

    CONSTANT   0.000000000000E+000  # STRT 3

    CONSTANT   0.000000000000E+000  # STRT 4

    CONSTANT   0.000000000000E+000  # STRT 5

    CONSTANT   0.000000000000E+000  # STRT 6

    CONSTANT   0.000000000000E+000  # STRT 7

    CONSTANT   0.000000000000E+000  # STRT 8

END GRIDDATA

