# FMI6 file created on 10/3/2022 by ModelMuse version 5.0.0.28.
BEGIN OPTIONS
    SAVE_FLOWS
  FLOW_IMBALANCE_CORRECTION
END OPTIONS

BEGIN PACKAGEDATA
  GWFBUDGET FILEIN Prudic2004t2.cbc
  GWFHEAD FILEIN Prudic2004t2.bhd
  GWFMOVER FILEIN Prudic2004t2.mvr_budget
  LAK-1 FILEIN Prudic2004t2.lk_bud
  SFR-1 FILEIN Prudic2004t2.sfr_budget
END PACKAGEDATA

