# Name File for MODFLOW created on 12/14/2015 by ModelMuse
LIST             11 RangeCheck.lst REPLACE
DATA(BINARY)      9 RangeCheck.cbc REPLACE
DIS              12 RangeCheck.dis OLD
BAS6             13 RangeCheck.bas OLD
OC               39 RangeCheck.oc OLD
DATA             37 RangeCheck.fhd REPLACE
DATA             38 RangeCheck.fdn REPLACE
PCG              18 RangeCheck.pcg OLD
LPF              14 RangeCheck.lpf OLD
CHD              17 RangeCheck.chd OLD
ZONE             15 RangeCheck.zon OLD
MULT             16 RangeCheck.mlt OLD
PVAL             52 RangeCheck.pval OLD
