# Name File for MODFLOW created on 12/14/2015 by ModelMuse
LIST             11 RechAddTest.lst REPLACE
DATA(BINARY)      9 RechAddTest.cbc REPLACE
DIS              12 RechAddTest.dis OLD
BAS6             13 RechAddTest.bas OLD
OC               39 RechAddTest.oc OLD
DATA             37 RechAddTest.fhd REPLACE
DATA             38 RechAddTest.fdn REPLACE
PCG              18 RechAddTest.pcg OLD
LPF              14 RechAddTest.lpf OLD
RCH              24 RechAddTest.rch OLD
ZONE             15 RechAddTest.zon OLD
MULT             16 RechAddTest.mlt OLD
PVAL             52 RechAddTest.pval OLD
