# Name File for MODFLOW created on 2/1/2017 by ModelMuse Version 3.8.1.27
LIST             11 ..\..\output\output.RipImport\RipImport.lst REPLACE
DATA(BINARY)      9 ..\..\output\output.RipImport\RipImport.cbc REPLACE
DIS              12 ..\..\model\model.RipImport\RipImport.dis OLD
BAS6             13 ..\..\model\model.RipImport\RipImport.bas OLD
OC               39 ..\..\model\model.RipImport\RipImport.oc OLD
DATA             37 ..\..\output\output.RipImport\RipImport.fhd REPLACE
DATA             38 ..\..\output\output.RipImport\RipImport.fdn REPLACE
DATA            189 ..\..\output\output.RipImport\RipImport.wbgt REPLACE
SIP              35 ..\..\model\model.RipImport\RipImport.sip OLD
BCF6             64 ..\..\model\model.RipImport\RipImport.bcf OLD
CHD              17 ..\..\model\model.RipImport\RipImport.chd OLD
WEL              20 ..\..\model\model.RipImport\RipImport.wel OLD
STR             142 ..\..\model\model.RipImport\RipImport.str OLD
DATA(BINARY)    143 ..\..\output\output.RipImport\RipImport.str_flow REPLACE
RIP             187 ..\..\model\model.RipImport\RipImport.rip OLD
DATA            188 ..\..\output\output.RipImport\RipImport.rip_et REPLACE
