# Name File for MODFLOW created on 12/14/2015 by ModelMuse
LIST             11 RotateTest.lst REPLACE
DATA(BINARY)      9 RotateTest.cbc REPLACE
DIS              12 RotateTest.dis OLD
BAS6             13 RotateTest.bas OLD
OC               39 RotateTest.oc OLD
DATA             37 RotateTest.fhd REPLACE
DATA             38 RotateTest.fdn REPLACE
PCG              18 RotateTest.pcg OLD
LPF              14 RotateTest.lpf OLD
