# Name File for MODFLOW created on 12/14/2015 by ModelMuse
LIST             11 RotatedVertexInterpolateTest.lst REPLACE
DATA(BINARY)      9 RotatedVertexInterpolateTest.cbc REPLACE
DIS              12 RotatedVertexInterpolateTest.dis OLD
BAS6             13 RotatedVertexInterpolateTest.bas OLD
OC               39 RotatedVertexInterpolateTest.oc OLD
DATA             37 RotatedVertexInterpolateTest.fhd REPLACE
DATA             38 RotatedVertexInterpolateTest.fdn REPLACE
PCG              18 RotatedVertexInterpolateTest.pcg OLD
LPF              14 RotatedVertexInterpolateTest.lpf OLD
