# Name File for MODFLOW created on 2/1/2017 by ModelMuse Version 3.8.1.27
LIST             11 ..\..\output\output.RotateTest\RotateTest.lst REPLACE
DATA(BINARY)      9 ..\..\output\output.RotateTest\RotateTest.cbc REPLACE
DIS              12 ..\..\model\model.RotateTest\RotateTest.dis OLD
BAS6             13 ..\..\model\model.RotateTest\RotateTest.bas OLD
OC               39 ..\..\model\model.RotateTest\RotateTest.oc OLD
DATA             37 ..\..\output\output.RotateTest\RotateTest.fhd REPLACE
DATA             38 ..\..\output\output.RotateTest\RotateTest.fdn REPLACE
PCG              18 ..\..\model\model.RotateTest\RotateTest.pcg OLD
LPF              14 ..\..\model\model.RotateTest\RotateTest.lpf OLD
