# Name File for MODFLOW created on 2/1/2017 by ModelMuse Version 3.8.1.27
LIST             11 ..\..\output\output.RotatedVertexInterpolateTest\RotatedVertexInterpolateTest.lst REPLACE
DATA(BINARY)      9 ..\..\output\output.RotatedVertexInterpolateTest\RotatedVertexInterpolateTest.cbc REPLACE
DIS              12 ..\..\model\model.RotatedVertexInterpolateTest\RotatedVertexInterpolateTest.dis OLD
BAS6             13 ..\..\model\model.RotatedVertexInterpolateTest\RotatedVertexInterpolateTest.bas OLD
OC               39 ..\..\model\model.RotatedVertexInterpolateTest\RotatedVertexInterpolateTest.oc OLD
DATA             37 ..\..\output\output.RotatedVertexInterpolateTest\RotatedVertexInterpolateTest.fhd REPLACE
DATA             38 ..\..\output\output.RotatedVertexInterpolateTest\RotatedVertexInterpolateTest.fdn REPLACE
PCG              18 ..\..\model\model.RotatedVertexInterpolateTest\RotatedVertexInterpolateTest.pcg OLD
LPF              14 ..\..\model\model.RotatedVertexInterpolateTest\RotatedVertexInterpolateTest.lpf OLD
