# RCH: Recharge package file created on 7/24/2023 by ModelMuse version 5.1.1.34.
BEGIN OPTIONS
  AUXILIARY IFACE Chem
  PRINT_INPUT
    SAVE_FLOWS
    BOUNDNAMES
  FIXED_CELL
END OPTIONS

BEGIN DIMENSIONS
  MAXBOUND    67
END DIMENSIONS

BEGIN PERIOD      1
     1     1    67 -1.030000000000E-003      0  0.000000000000E+000  'Object2' 
     1     1    66 -1.030000000000E-003      0  0.000000000000E+000  'Object2' 
     1     1    65 -1.030000000000E-003      0  0.000000000000E+000  'Object2' 
     1     1    64 -1.030000000000E-003      0  0.000000000000E+000  'Object2' 
     1     1    63 -1.030000000000E-003      0  0.000000000000E+000  'Object2' 
     1     1    62 -1.030000000000E-003      0  0.000000000000E+000  'Object2' 
     1     1    61 -1.030000000000E-003      0  0.000000000000E+000  'Object2' 
     1     1    60 -1.030000000000E-003      0  0.000000000000E+000  'Object2' 
     1     1    59 -1.030000000000E-003      0  0.000000000000E+000  'Object2' 
     1     1    58 -1.030000000000E-003      0  0.000000000000E+000  'Object2' 
     1     1    57 -1.030000000000E-003      0  0.000000000000E+000  'Object2' 
     1     1    56 -1.030000000000E-003      0  0.000000000000E+000  'Object2' 
     1     1    55 -1.030000000000E-003      0  0.000000000000E+000  'Object2' 
     1     1    54 -1.030000000000E-003      0  0.000000000000E+000  'Object2' 
     1     1    53 -1.030000000000E-003      0  0.000000000000E+000  'Object2' 
     1     1    52 -1.030000000000E-003      0  0.000000000000E+000  'Object2' 
     1     1    51 -1.030000000000E-003      0  0.000000000000E+000  'Object2' 
     1     1    50 -1.030000000000E-003      0  0.000000000000E+000  'Object2' 
     1     1    49 -1.030000000000E-003      0  0.000000000000E+000  'Object2' 
     1     1    48 -1.030000000000E-003      0  0.000000000000E+000  'Object2' 
     1     1    47 -1.030000000000E-003      0  0.000000000000E+000  'Object2' 
     1     1    46 -1.030000000000E-003      0  0.000000000000E+000  'Object2' 
     1     1    45 -1.030000000000E-003      0  0.000000000000E+000  'Object2' 
     1     1    44 -1.030000000000E-003      0  0.000000000000E+000  'Object2' 
     1     1    43 -1.030000000000E-003      0  0.000000000000E+000  'Object2' 
     1     1    42 -1.030000000000E-003      0  0.000000000000E+000  'Object2' 
     1     1    41 -1.030000000000E-003      0  0.000000000000E+000  'Object2' 
     1     1    40 -1.030000000000E-003      0  0.000000000000E+000  'Object2' 
     1     1    39 -1.030000000000E-003      0  0.000000000000E+000  'Object2' 
     1     1    38 -1.030000000000E-003      0  0.000000000000E+000  'Object2' 
     1     1    37 -1.030000000000E-003      0  0.000000000000E+000  'Object2' 
     1     1    36 -1.030000000000E-003      0  0.000000000000E+000  'Object2' 
     1     1    35 -1.030000000000E-003      0  0.000000000000E+000  'Object2' 
     1     1    34 -1.030000000000E-003      0  0.000000000000E+000  'Object2' 
     1     1    33 -1.030000000000E-003      0  0.000000000000E+000  'Object2' 
     1     1    32 -1.030000000000E-003      0  0.000000000000E+000  'Object2' 
     1     1    31 -1.030000000000E-003      0  0.000000000000E+000  'Object2' 
     1     1    30 -1.030000000000E-003      0  0.000000000000E+000  'Object2' 
     1     1    29 -1.030000000000E-003      0  0.000000000000E+000  'Object2' 
     1     1    28 -1.030000000000E-003      0  0.000000000000E+000  'Object2' 
     1     1    27 -1.030000000000E-003      0  0.000000000000E+000  'Object2' 
     1     1    26 -1.030000000000E-003      0  0.000000000000E+000  'Object2' 
     1     1    25 -1.030000000000E-003      0  0.000000000000E+000  'Object2' 
     1     1    24 -1.030000000000E-003      0  0.000000000000E+000  'Object2' 
     1     1    23 -1.030000000000E-003      0  0.000000000000E+000  'Object2' 
     1     1    22 -1.030000000000E-003      0  0.000000000000E+000  'Object2' 
     1     1    21 -1.030000000000E-003      0  0.000000000000E+000  'Object2' 
     1     1    20 -1.030000000000E-003      0  0.000000000000E+000  'Object2' 
     1     1    19 -1.030000000000E-003      0  0.000000000000E+000  'Object2' 
     1     1    18 -1.030000000000E-003      0  0.000000000000E+000  'Object2' 
     1     1    17 -1.030000000000E-003      0  0.000000000000E+000  'Object2' 
     1     1    16 -1.030000000000E-003      0  0.000000000000E+000  'Object2' 
     1     1    15 -1.030000000000E-003      0  0.000000000000E+000  'Object2' 
     1     1    14 -1.030000000000E-003      0  0.000000000000E+000  'Object2' 
     1     1    13 -1.030000000000E-003      0  0.000000000000E+000  'Object2' 
     1     1    12 -1.030000000000E-003      0  0.000000000000E+000  'Object2' 
     1     1    11 -1.030000000000E-003      0  0.000000000000E+000  'Object2' 
     1     1    10 -1.030000000000E-003      0  0.000000000000E+000  'Object2' 
     1     1     9 -1.030000000000E-003      0  0.000000000000E+000  'Object2' 
     1     1     8 -1.030000000000E-003      0  0.000000000000E+000  'Object2' 
     1     1     7 -1.030000000000E-003      0  0.000000000000E+000  'Object2' 
     1     1     6 -1.030000000000E-003      0  0.000000000000E+000  'Object2' 
     1     1     5 -1.030000000000E-003      0  0.000000000000E+000  'Object2' 
     1     1     4 -1.030000000000E-003      0  0.000000000000E+000  'Object2' 
     1     1     3 -1.030000000000E-003      0  0.000000000000E+000  'Object2' 
     1     1     2 -1.030000000000E-003      0  0.000000000000E+000  'Object2' 
     1     1     1 -1.030000000000E-003      0  0.000000000000E+000  'Object2' 
END PERIOD 

