# Output Control file created on 7/24/2023 by ModelMuse version 5.1.1.34.
BEGIN OPTIONS
  BUDGET FILEOUT 'SaltLake.cbc'
  HEAD FILEOUT 'SaltLake.bhd'
END OPTIONS

BEGIN PERIOD      1
  SAVE HEAD ALL
  PRINT BUDGET ALL
  SAVE BUDGET ALL
END PERIOD 

