# Initial concentration file for Chem file created on 6/21/2024 by ModelMuse version 5.2.0.18.
BEGIN GRIDDATA
  STRT LAYERED IPRN    12
    CONSTANT   8.400000000000E-005  # STRT 1

    CONSTANT   8.400000000000E-005  # STRT 2

    CONSTANT   8.400000000000E-005  # STRT 3

    CONSTANT   8.400000000000E-005  # STRT 4

    CONSTANT   8.400000000000E-005  # STRT 5

    CONSTANT   8.400000000000E-005  # STRT 6

    CONSTANT   8.400000000000E-005  # STRT 7

    CONSTANT   8.400000000000E-005  # STRT 8

    CONSTANT   8.400000000000E-005  # STRT 9

    CONSTANT   8.400000000000E-005  # STRT 10

    CONSTANT   8.400000000000E-005  # STRT 11

    CONSTANT   8.400000000000E-005  # STRT 12

    CONSTANT   8.400000000000E-005  # STRT 13

    CONSTANT   8.400000000000E-005  # STRT 14

    CONSTANT   8.400000000000E-005  # STRT 15

    CONSTANT   8.400000000000E-005  # STRT 16

    CONSTANT   8.400000000000E-005  # STRT 17

    CONSTANT   8.400000000000E-005  # STRT 18

    CONSTANT   8.400000000000E-005  # STRT 19

    CONSTANT   8.400000000000E-005  # STRT 20

    CONSTANT   8.400000000000E-005  # STRT 21

    CONSTANT   8.400000000000E-005  # STRT 22

    CONSTANT   8.400000000000E-005  # STRT 23

    CONSTANT   8.400000000000E-005  # STRT 24

    CONSTANT   8.400000000000E-005  # STRT 25

    CONSTANT   8.400000000000E-005  # STRT 26

    CONSTANT   8.400000000000E-005  # STRT 27

    CONSTANT   8.400000000000E-005  # STRT 28

    CONSTANT   8.400000000000E-005  # STRT 29

    CONSTANT   8.400000000000E-005  # STRT 30

    CONSTANT   8.400000000000E-005  # STRT 31

    CONSTANT   8.400000000000E-005  # STRT 32

    CONSTANT   8.400000000000E-005  # STRT 33

    CONSTANT   8.400000000000E-005  # STRT 34

    CONSTANT   8.400000000000E-005  # STRT 35

    CONSTANT   8.400000000000E-005  # STRT 36

    CONSTANT   8.400000000000E-005  # STRT 37

    CONSTANT   8.400000000000E-005  # STRT 38

    CONSTANT   8.400000000000E-005  # STRT 39

    CONSTANT   8.400000000000E-005  # STRT 40

    CONSTANT   8.400000000000E-005  # STRT 41

    CONSTANT   8.400000000000E-005  # STRT 42

    CONSTANT   8.400000000000E-005  # STRT 43

    CONSTANT   8.400000000000E-005  # STRT 44

    CONSTANT   8.400000000000E-005  # STRT 45

    CONSTANT   8.400000000000E-005  # STRT 46

    CONSTANT   8.400000000000E-005  # STRT 47

    CONSTANT   8.400000000000E-005  # STRT 48

    CONSTANT   8.400000000000E-005  # STRT 49

    CONSTANT   8.400000000000E-005  # STRT 50

    CONSTANT   8.400000000000E-005  # STRT 51

    CONSTANT   8.400000000000E-005  # STRT 52

    CONSTANT   8.400000000000E-005  # STRT 53

    CONSTANT   8.400000000000E-005  # STRT 54

    CONSTANT   8.400000000000E-005  # STRT 55

    CONSTANT   8.400000000000E-005  # STRT 56

    CONSTANT   8.400000000000E-005  # STRT 57

END GRIDDATA

