# DSP: GWT Dispersion Package file created on 7/24/2023 by ModelMuse version 5.1.1.34.
BEGIN OPTIONS
  XT3D_OFF
END OPTIONS

BEGIN GRIDDATA
  DIFFC LAYERED IPRN    12
    CONSTANT   9.000000000000E-004  # DIFFC 1

    CONSTANT   9.000000000000E-004  # DIFFC 2

    CONSTANT   9.000000000000E-004  # DIFFC 3

    CONSTANT   9.000000000000E-004  # DIFFC 4

    CONSTANT   9.000000000000E-004  # DIFFC 5

    CONSTANT   9.000000000000E-004  # DIFFC 6

    CONSTANT   9.000000000000E-004  # DIFFC 7

    CONSTANT   9.000000000000E-004  # DIFFC 8

    CONSTANT   9.000000000000E-004  # DIFFC 9

    CONSTANT   9.000000000000E-004  # DIFFC 10

    CONSTANT   9.000000000000E-004  # DIFFC 11

    CONSTANT   9.000000000000E-004  # DIFFC 12

    CONSTANT   9.000000000000E-004  # DIFFC 13

    CONSTANT   9.000000000000E-004  # DIFFC 14

    CONSTANT   9.000000000000E-004  # DIFFC 15

    CONSTANT   9.000000000000E-004  # DIFFC 16

    CONSTANT   9.000000000000E-004  # DIFFC 17

    CONSTANT   9.000000000000E-004  # DIFFC 18

    CONSTANT   9.000000000000E-004  # DIFFC 19

    CONSTANT   9.000000000000E-004  # DIFFC 20

    CONSTANT   9.000000000000E-004  # DIFFC 21

    CONSTANT   9.000000000000E-004  # DIFFC 22

    CONSTANT   9.000000000000E-004  # DIFFC 23

    CONSTANT   9.000000000000E-004  # DIFFC 24

    CONSTANT   9.000000000000E-004  # DIFFC 25

    CONSTANT   9.000000000000E-004  # DIFFC 26

    CONSTANT   9.000000000000E-004  # DIFFC 27

    CONSTANT   9.000000000000E-004  # DIFFC 28

    CONSTANT   9.000000000000E-004  # DIFFC 29

    CONSTANT   9.000000000000E-004  # DIFFC 30

    CONSTANT   9.000000000000E-004  # DIFFC 31

    CONSTANT   9.000000000000E-004  # DIFFC 32

    CONSTANT   9.000000000000E-004  # DIFFC 33

    CONSTANT   9.000000000000E-004  # DIFFC 34

    CONSTANT   9.000000000000E-004  # DIFFC 35

    CONSTANT   9.000000000000E-004  # DIFFC 36

    CONSTANT   9.000000000000E-004  # DIFFC 37

    CONSTANT   9.000000000000E-004  # DIFFC 38

    CONSTANT   9.000000000000E-004  # DIFFC 39

    CONSTANT   9.000000000000E-004  # DIFFC 40

    CONSTANT   9.000000000000E-004  # DIFFC 41

    CONSTANT   9.000000000000E-004  # DIFFC 42

    CONSTANT   9.000000000000E-004  # DIFFC 43

    CONSTANT   9.000000000000E-004  # DIFFC 44

    CONSTANT   9.000000000000E-004  # DIFFC 45

    CONSTANT   9.000000000000E-004  # DIFFC 46

    CONSTANT   9.000000000000E-004  # DIFFC 47

    CONSTANT   9.000000000000E-004  # DIFFC 48

    CONSTANT   9.000000000000E-004  # DIFFC 49

    CONSTANT   9.000000000000E-004  # DIFFC 50

    CONSTANT   9.000000000000E-004  # DIFFC 51

    CONSTANT   9.000000000000E-004  # DIFFC 52

    CONSTANT   9.000000000000E-004  # DIFFC 53

    CONSTANT   9.000000000000E-004  # DIFFC 54

    CONSTANT   9.000000000000E-004  # DIFFC 55

    CONSTANT   9.000000000000E-004  # DIFFC 56

    CONSTANT   9.000000000000E-004  # DIFFC 57

  ALH LAYERED IPRN    12
    CONSTANT   9.000000000000E-007  # ALH 1

    CONSTANT   9.000000000000E-007  # ALH 2

    CONSTANT   9.000000000000E-007  # ALH 3

    CONSTANT   9.000000000000E-007  # ALH 4

    CONSTANT   9.000000000000E-007  # ALH 5

    CONSTANT   9.000000000000E-007  # ALH 6

    CONSTANT   9.000000000000E-007  # ALH 7

    CONSTANT   9.000000000000E-007  # ALH 8

    CONSTANT   9.000000000000E-007  # ALH 9

    CONSTANT   9.000000000000E-007  # ALH 10

    CONSTANT   9.000000000000E-007  # ALH 11

    CONSTANT   9.000000000000E-007  # ALH 12

    CONSTANT   9.000000000000E-007  # ALH 13

    CONSTANT   9.000000000000E-007  # ALH 14

    CONSTANT   9.000000000000E-007  # ALH 15

    CONSTANT   9.000000000000E-007  # ALH 16

    CONSTANT   9.000000000000E-007  # ALH 17

    CONSTANT   9.000000000000E-007  # ALH 18

    CONSTANT   9.000000000000E-007  # ALH 19

    CONSTANT   9.000000000000E-007  # ALH 20

    CONSTANT   9.000000000000E-007  # ALH 21

    CONSTANT   9.000000000000E-007  # ALH 22

    CONSTANT   9.000000000000E-007  # ALH 23

    CONSTANT   9.000000000000E-007  # ALH 24

    CONSTANT   9.000000000000E-007  # ALH 25

    CONSTANT   9.000000000000E-007  # ALH 26

    CONSTANT   9.000000000000E-007  # ALH 27

    CONSTANT   9.000000000000E-007  # ALH 28

    CONSTANT   9.000000000000E-007  # ALH 29

    CONSTANT   9.000000000000E-007  # ALH 30

    CONSTANT   9.000000000000E-007  # ALH 31

    CONSTANT   9.000000000000E-007  # ALH 32

    CONSTANT   9.000000000000E-007  # ALH 33

    CONSTANT   9.000000000000E-007  # ALH 34

    CONSTANT   9.000000000000E-007  # ALH 35

    CONSTANT   9.000000000000E-007  # ALH 36

    CONSTANT   9.000000000000E-007  # ALH 37

    CONSTANT   9.000000000000E-007  # ALH 38

    CONSTANT   9.000000000000E-007  # ALH 39

    CONSTANT   9.000000000000E-007  # ALH 40

    CONSTANT   9.000000000000E-007  # ALH 41

    CONSTANT   9.000000000000E-007  # ALH 42

    CONSTANT   9.000000000000E-007  # ALH 43

    CONSTANT   9.000000000000E-007  # ALH 44

    CONSTANT   9.000000000000E-007  # ALH 45

    CONSTANT   9.000000000000E-007  # ALH 46

    CONSTANT   9.000000000000E-007  # ALH 47

    CONSTANT   9.000000000000E-007  # ALH 48

    CONSTANT   9.000000000000E-007  # ALH 49

    CONSTANT   9.000000000000E-007  # ALH 50

    CONSTANT   9.000000000000E-007  # ALH 51

    CONSTANT   9.000000000000E-007  # ALH 52

    CONSTANT   9.000000000000E-007  # ALH 53

    CONSTANT   9.000000000000E-007  # ALH 54

    CONSTANT   9.000000000000E-007  # ALH 55

    CONSTANT   9.000000000000E-007  # ALH 56

    CONSTANT   9.000000000000E-007  # ALH 57

  ATH1 LAYERED IPRN    12
    CONSTANT   9.000000000000E-007  # ATH1 1

    CONSTANT   9.000000000000E-007  # ATH1 2

    CONSTANT   9.000000000000E-007  # ATH1 3

    CONSTANT   9.000000000000E-007  # ATH1 4

    CONSTANT   9.000000000000E-007  # ATH1 5

    CONSTANT   9.000000000000E-007  # ATH1 6

    CONSTANT   9.000000000000E-007  # ATH1 7

    CONSTANT   9.000000000000E-007  # ATH1 8

    CONSTANT   9.000000000000E-007  # ATH1 9

    CONSTANT   9.000000000000E-007  # ATH1 10

    CONSTANT   9.000000000000E-007  # ATH1 11

    CONSTANT   9.000000000000E-007  # ATH1 12

    CONSTANT   9.000000000000E-007  # ATH1 13

    CONSTANT   9.000000000000E-007  # ATH1 14

    CONSTANT   9.000000000000E-007  # ATH1 15

    CONSTANT   9.000000000000E-007  # ATH1 16

    CONSTANT   9.000000000000E-007  # ATH1 17

    CONSTANT   9.000000000000E-007  # ATH1 18

    CONSTANT   9.000000000000E-007  # ATH1 19

    CONSTANT   9.000000000000E-007  # ATH1 20

    CONSTANT   9.000000000000E-007  # ATH1 21

    CONSTANT   9.000000000000E-007  # ATH1 22

    CONSTANT   9.000000000000E-007  # ATH1 23

    CONSTANT   9.000000000000E-007  # ATH1 24

    CONSTANT   9.000000000000E-007  # ATH1 25

    CONSTANT   9.000000000000E-007  # ATH1 26

    CONSTANT   9.000000000000E-007  # ATH1 27

    CONSTANT   9.000000000000E-007  # ATH1 28

    CONSTANT   9.000000000000E-007  # ATH1 29

    CONSTANT   9.000000000000E-007  # ATH1 30

    CONSTANT   9.000000000000E-007  # ATH1 31

    CONSTANT   9.000000000000E-007  # ATH1 32

    CONSTANT   9.000000000000E-007  # ATH1 33

    CONSTANT   9.000000000000E-007  # ATH1 34

    CONSTANT   9.000000000000E-007  # ATH1 35

    CONSTANT   9.000000000000E-007  # ATH1 36

    CONSTANT   9.000000000000E-007  # ATH1 37

    CONSTANT   9.000000000000E-007  # ATH1 38

    CONSTANT   9.000000000000E-007  # ATH1 39

    CONSTANT   9.000000000000E-007  # ATH1 40

    CONSTANT   9.000000000000E-007  # ATH1 41

    CONSTANT   9.000000000000E-007  # ATH1 42

    CONSTANT   9.000000000000E-007  # ATH1 43

    CONSTANT   9.000000000000E-007  # ATH1 44

    CONSTANT   9.000000000000E-007  # ATH1 45

    CONSTANT   9.000000000000E-007  # ATH1 46

    CONSTANT   9.000000000000E-007  # ATH1 47

    CONSTANT   9.000000000000E-007  # ATH1 48

    CONSTANT   9.000000000000E-007  # ATH1 49

    CONSTANT   9.000000000000E-007  # ATH1 50

    CONSTANT   9.000000000000E-007  # ATH1 51

    CONSTANT   9.000000000000E-007  # ATH1 52

    CONSTANT   9.000000000000E-007  # ATH1 53

    CONSTANT   9.000000000000E-007  # ATH1 54

    CONSTANT   9.000000000000E-007  # ATH1 55

    CONSTANT   9.000000000000E-007  # ATH1 56

    CONSTANT   9.000000000000E-007  # ATH1 57

END GRIDDATA

