# IMS: Iterative Model Solution file created on 7/24/2023 by ModelMuse version 5.1.1.34.
BEGIN OPTIONS
  PRINT_OPTION ALL
  COMPLEXITY SIMPLE
  CSV_OUTER_OUTPUT FILEOUT SaltLake.Chem.OuterSolution.CSV
  CSV_INNER_OUTPUT FILEOUT SaltLake.Chem.InnerSolution.CSV
  ATS_OUTER_MAXIMUM_FRACTION  3.333333333333E-001 
END OPTIONS

BEGIN NONLINEAR
  OUTER_DVCLOSE   1.000000000000E-008 
  OUTER_MAXIMUM    100
  UNDER_RELAXATION NONE
  BACKTRACKING_NUMBER     0
END NONLINEAR

BEGIN LINEAR
  INNER_MAXIMUM   300
  INNER_DVCLOSE  1.000000000000E-009 
  INNER_RCLOSE  1.000000000000E-009 
  LINEAR_ACCELERATION BICGSTAB
  RELAXATION_FACTOR  9.700000000000E-001 
  SCALING_METHOD NONE
  REORDERING_METHOD NONE
END LINEAR

