# SSM: GWT Source and Sink Mixing Package file created on 7/24/2023 by ModelMuse version 5.1.1.34.
BEGIN OPTIONS
    SAVE_FLOWS
END OPTIONS

BEGIN SOURCES
  CHD-1 AUX Chem
  RCH-1 AUXMIXED Chem
END SOURCES
