# Name File for MODFLOW created on 7/24/2023 by ModelMuse Version 5.1.1.34
BEGIN OPTIONS
  LIST ..\..\output\output.SaltLake\SaltLake.lst
  PRINT_INPUT
  SAVE_FLOWS
END OPTIONS

BEGIN PACKAGES
  DIS6         ..\..\model\model.SaltLake\SaltLake.dis  DIS
  IC6          ..\..\model\model.SaltLake\SaltLake.ic  IC
  NPF6         ..\..\model\model.SaltLake\SaltLake.npf  NPF
  STO6         ..\..\model\model.SaltLake\SaltLake.sto  STO
  OC6          ..\..\model\model.SaltLake\SaltLake.oc  OC
  CHD6         ..\..\model\model.SaltLake\SaltLake.chd  CHD-1
  BUY6         ..\..\model\model.SaltLake\SaltLake.buy  BUY6
  RCH6         ..\..\model\model.SaltLake\SaltLake.rch  RCH-1
END PACKAGES
