# TDIS file created on 7/24/2023 by ModelMuse version 5.1.1.34.

BEGIN OPTIONS
  TIME_UNITS seconds
END OPTIONS

BEGIN DIMENSIONS
  NPER     1
END DIMENSIONS

BEGIN PERIODDATA
    2.400000000000E+004    400  1.000000000000E+000  # perlen nstp tsmult, Stress period      1 Time =  0.000000000000E+000  -  2.400000000000E+004 
END PERIODDATA
