# Discretization File created on 7/24/2023 by ModelMuse version 5.1.1.34.
# Upper left corner: (0, 0)
# Lower left corner: (0, -1.5)
# Upper right corner: (150, 0)
# Lower right corner: (150, -1.5)
# Grid angle (in degrees counterclockwise): 0
# Number of active cells = 7695.
BEGIN OPTIONS
  LENGTH_UNITS METERS
  XORIGIN  0.000000000000E+000 
  YORIGIN -1.500000000000E+000 
  ANGROT  0.000000000000E+000 
END OPTIONS

BEGIN DIMENSIONS
  NLAY     57
  NROW      1
  NCOL    135
END DIMENSIONS


BEGIN GRIDDATA
  DELR LAYERED
    INTERNAL IPRN     12 # DELR
        7.500000000000E-001   7.500000000000E-001   7.500000000000E-001   7.500000000000E-001   7.500000000000E-001   7.500000000000E-001   7.500000000000E-001   7.500000000000E-001   7.500000000000E-001   7.500000000000E-001 
        7.500000000000E-001   7.500000000000E-001   7.500000000000E-001   7.500000000000E-001   7.500000000000E-001   7.500000000000E-001   7.500000000000E-001   7.500000000000E-001   7.500000000000E-001   7.500000000000E-001 
        7.500000000000E-001   7.500000000000E-001   7.500000000000E-001   7.500000000000E-001   7.500000000000E-001   7.500000000000E-001   7.500000000000E-001   7.500000000000E-001   7.500000000000E-001   7.500000000000E-001 
        7.500000000000E-001   7.500000000000E-001   7.500000000000E-001   7.500000000000E-001   7.500000000000E-001   7.500000000000E-001   7.500000000000E-001   7.500000000000E-001   7.500000000000E-001   7.500000000000E-001 
        7.500000000000E-001   7.500000000000E-001   7.500000000000E-001   7.500000000000E-001   7.500000000000E-001   7.500000000000E-001   7.500000000000E-001   7.500000000000E-001   7.500000000000E-001   7.500000000000E-001 
        7.500000000000E-001   7.500000000000E-001   7.500000000000E-001   7.500000000000E-001   7.500000000000E-001   7.500000000000E-001   7.500000000000E-001   7.500000000000E-001   7.500000000000E-001   7.500000000000E-001 
        7.500000000000E-001   7.500000000000E-001   7.500000000000E-001   7.500000000000E-001   7.500000000000E-001   7.500000000000E-001   7.500000000000E-001   7.500000000000E-001   7.500000000000E-001   7.500000000000E-001 
        1.500000000000E+000   1.500000000000E+000   1.500000000000E+000   1.500000000000E+000   1.500000000000E+000   1.500000000000E+000   1.500000000000E+000   1.500000000000E+000   1.500000000000E+000   1.500000000000E+000 
        1.500000000000E+000   1.500000000000E+000   1.500000000000E+000   1.500000000000E+000   1.500000000000E+000   1.500000000000E+000   1.500000000000E+000   1.500000000000E+000   1.500000000000E+000   1.500000000000E+000 
        1.500000000000E+000   1.500000000000E+000   1.500000000000E+000   1.500000000000E+000   1.500000000000E+000   1.500000000000E+000   1.500000000000E+000   1.500000000000E+000   1.500000000000E+000   1.500000000000E+000 
        1.500000000000E+000   1.500000000000E+000   1.500000000000E+000   1.500000000000E+000   1.500000000000E+000   1.500000000000E+000   1.500000000000E+000   1.500000000000E+000   1.500000000000E+000   1.500000000000E+000 
        1.500000000000E+000   1.500000000000E+000   1.500000000000E+000   1.500000000000E+000   1.500000000000E+000   1.500000000000E+000   1.500000000000E+000   1.500000000000E+000   1.500000000000E+000   1.500000000000E+000 
        1.500000000000E+000   1.500000000000E+000   1.500000000000E+000   1.500000000000E+000   1.500000000000E+000   1.500000000000E+000   1.500000000000E+000   1.500000000000E+000   1.500000000000E+000   1.500000000000E+000 
        1.500000000000E+000   1.500000000000E+000   1.500000000000E+000   1.500000000000E+000   1.500000000000E+000 
  DELC IPRN    12
    CONSTANT   1.500000000000E+000  # DELC

  TOP LAYERED IPRN    12
    CONSTANT   7.500000000000E+001  # TOP

  BOTM LAYERED IPRN    12
    CONSTANT   7.425000000000E+001  # BOTM, Upper Aquifer Layer 1

    CONSTANT   7.350000000000E+001  # BOTM, Upper Aquifer Layer 2

    CONSTANT   7.275000000000E+001  # BOTM, Upper Aquifer Layer 3

    CONSTANT   7.200000000000E+001  # BOTM, Upper Aquifer Layer 4

    CONSTANT   7.125000000000E+001  # BOTM, Upper Aquifer Layer 5

    CONSTANT   7.050000000000E+001  # BOTM, Upper Aquifer Layer 6

    CONSTANT   6.975000000000E+001  # BOTM, Upper Aquifer Layer 7

    CONSTANT   6.900000000000E+001  # BOTM, Upper Aquifer Layer 8

    CONSTANT   6.825000000000E+001  # BOTM, Upper Aquifer Layer 9

    CONSTANT   6.750000000000E+001  # BOTM, Upper Aquifer Layer 10

    CONSTANT   6.675000000000E+001  # BOTM, Upper Aquifer Layer 11

    CONSTANT   6.600000000000E+001  # BOTM, Upper Aquifer Layer 12

    CONSTANT   6.525000000000E+001  # BOTM, Upper Aquifer Layer 13

    CONSTANT   6.450000000000E+001  # BOTM, Upper Aquifer Layer 14

    CONSTANT   6.300000000000E+001  # BOTM, Lower Aquifer Layer 1

    CONSTANT   6.150000000000E+001  # BOTM, Lower Aquifer Layer 2

    CONSTANT   6.000000000000E+001  # BOTM, Lower Aquifer Layer 3

    CONSTANT   5.850000000000E+001  # BOTM, Lower Aquifer Layer 4

    CONSTANT   5.700000000000E+001  # BOTM, Lower Aquifer Layer 5

    CONSTANT   5.550000000000E+001  # BOTM, Lower Aquifer Layer 6

    CONSTANT   5.400000000000E+001  # BOTM, Lower Aquifer Layer 7

    CONSTANT   5.250000000000E+001  # BOTM, Lower Aquifer Layer 8

    CONSTANT   5.100000000000E+001  # BOTM, Lower Aquifer Layer 9

    CONSTANT   4.950000000000E+001  # BOTM, Lower Aquifer Layer 10

    CONSTANT   4.800000000000E+001  # BOTM, Lower Aquifer Layer 11

    CONSTANT   4.650000000000E+001  # BOTM, Lower Aquifer Layer 12

    CONSTANT   4.500000000000E+001  # BOTM, Lower Aquifer Layer 13

    CONSTANT   4.350000000000E+001  # BOTM, Lower Aquifer Layer 14

    CONSTANT   4.200000000000E+001  # BOTM, Lower Aquifer Layer 15

    CONSTANT   4.050000000000E+001  # BOTM, Lower Aquifer Layer 16

    CONSTANT   3.900000000000E+001  # BOTM, Lower Aquifer Layer 17

    CONSTANT   3.750000000000E+001  # BOTM, Lower Aquifer Layer 18

    CONSTANT   3.600000000000E+001  # BOTM, Lower Aquifer Layer 19

    CONSTANT   3.450000000000E+001  # BOTM, Lower Aquifer Layer 20

    CONSTANT   3.300000000000E+001  # BOTM, Lower Aquifer Layer 21

    CONSTANT   3.150000000000E+001  # BOTM, Lower Aquifer Layer 22

    CONSTANT   3.000000000000E+001  # BOTM, Lower Aquifer Layer 23

    CONSTANT   2.850000000000E+001  # BOTM, Lower Aquifer Layer 24

    CONSTANT   2.700000000000E+001  # BOTM, Lower Aquifer Layer 25

    CONSTANT   2.550000000000E+001  # BOTM, Lower Aquifer Layer 26

    CONSTANT   2.400000000000E+001  # BOTM, Lower Aquifer Layer 27

    CONSTANT   2.250000000000E+001  # BOTM, Lower Aquifer Layer 28

    CONSTANT   2.100000000000E+001  # BOTM, Lower Aquifer Layer 29

    CONSTANT   1.950000000000E+001  # BOTM, Lower Aquifer Layer 30

    CONSTANT   1.800000000000E+001  # BOTM, Lower Aquifer Layer 31

    CONSTANT   1.650000000000E+001  # BOTM, Lower Aquifer Layer 32

    CONSTANT   1.500000000000E+001  # BOTM, Lower Aquifer Layer 33

    CONSTANT   1.350000000000E+001  # BOTM, Lower Aquifer Layer 34

    CONSTANT   1.200000000000E+001  # BOTM, Lower Aquifer Layer 35

    CONSTANT   1.050000000000E+001  # BOTM, Lower Aquifer Layer 36

    CONSTANT   9.000000000000E+000  # BOTM, Lower Aquifer Layer 37

    CONSTANT   7.500000000000E+000  # BOTM, Lower Aquifer Layer 38

    CONSTANT   6.000000000000E+000  # BOTM, Lower Aquifer Layer 39

    CONSTANT   4.500000000000E+000  # BOTM, Lower Aquifer Layer 40

    CONSTANT   3.000000000000E+000  # BOTM, Lower Aquifer Layer 41

    CONSTANT   1.500000000000E+000  # BOTM, Lower Aquifer Layer 42

    CONSTANT   0.000000000000E+000  # BOTM, Lower Aquifer Layer 43

  IDOMAIN LAYERED IPRN     5
    CONSTANT      1 # IDOMAIN 1
    CONSTANT      1 # IDOMAIN 2
    CONSTANT      1 # IDOMAIN 3
    CONSTANT      1 # IDOMAIN 4
    CONSTANT      1 # IDOMAIN 5
    CONSTANT      1 # IDOMAIN 6
    CONSTANT      1 # IDOMAIN 7
    CONSTANT      1 # IDOMAIN 8
    CONSTANT      1 # IDOMAIN 9
    CONSTANT      1 # IDOMAIN 10
    CONSTANT      1 # IDOMAIN 11
    CONSTANT      1 # IDOMAIN 12
    CONSTANT      1 # IDOMAIN 13
    CONSTANT      1 # IDOMAIN 14
    CONSTANT      1 # IDOMAIN 15
    CONSTANT      1 # IDOMAIN 16
    CONSTANT      1 # IDOMAIN 17
    CONSTANT      1 # IDOMAIN 18
    CONSTANT      1 # IDOMAIN 19
    CONSTANT      1 # IDOMAIN 20
    CONSTANT      1 # IDOMAIN 21
    CONSTANT      1 # IDOMAIN 22
    CONSTANT      1 # IDOMAIN 23
    CONSTANT      1 # IDOMAIN 24
    CONSTANT      1 # IDOMAIN 25
    CONSTANT      1 # IDOMAIN 26
    CONSTANT      1 # IDOMAIN 27
    CONSTANT      1 # IDOMAIN 28
    CONSTANT      1 # IDOMAIN 29
    CONSTANT      1 # IDOMAIN 30
    CONSTANT      1 # IDOMAIN 31
    CONSTANT      1 # IDOMAIN 32
    CONSTANT      1 # IDOMAIN 33
    CONSTANT      1 # IDOMAIN 34
    CONSTANT      1 # IDOMAIN 35
    CONSTANT      1 # IDOMAIN 36
    CONSTANT      1 # IDOMAIN 37
    CONSTANT      1 # IDOMAIN 38
    CONSTANT      1 # IDOMAIN 39
    CONSTANT      1 # IDOMAIN 40
    CONSTANT      1 # IDOMAIN 41
    CONSTANT      1 # IDOMAIN 42
    CONSTANT      1 # IDOMAIN 43
    CONSTANT      1 # IDOMAIN 44
    CONSTANT      1 # IDOMAIN 45
    CONSTANT      1 # IDOMAIN 46
    CONSTANT      1 # IDOMAIN 47
    CONSTANT      1 # IDOMAIN 48
    CONSTANT      1 # IDOMAIN 49
    CONSTANT      1 # IDOMAIN 50
    CONSTANT      1 # IDOMAIN 51
    CONSTANT      1 # IDOMAIN 52
    CONSTANT      1 # IDOMAIN 53
    CONSTANT      1 # IDOMAIN 54
    CONSTANT      1 # IDOMAIN 55
    CONSTANT      1 # IDOMAIN 56
    CONSTANT      1 # IDOMAIN 57
END GRIDDATA

