# MST: Mobile Storage and Transfer Package file created on 7/24/2023 by ModelMuse version 5.1.1.34.
BEGIN OPTIONS
    SAVE_FLOWS
END OPTIONS

BEGIN GRIDDATA
  POROSITY LAYERED IPRN    12
    CONSTANT   1.000000000000E+000  # POROSITY 1

    CONSTANT   1.000000000000E+000  # POROSITY 2

    CONSTANT   1.000000000000E+000  # POROSITY 3

    CONSTANT   1.000000000000E+000  # POROSITY 4

    CONSTANT   1.000000000000E+000  # POROSITY 5

    CONSTANT   1.000000000000E+000  # POROSITY 6

    CONSTANT   1.000000000000E+000  # POROSITY 7

    CONSTANT   1.000000000000E+000  # POROSITY 8

    CONSTANT   1.000000000000E+000  # POROSITY 9

    CONSTANT   1.000000000000E+000  # POROSITY 10

    CONSTANT   1.000000000000E+000  # POROSITY 11

    CONSTANT   1.000000000000E+000  # POROSITY 12

    CONSTANT   1.000000000000E+000  # POROSITY 13

    CONSTANT   1.000000000000E+000  # POROSITY 14

    CONSTANT   1.000000000000E+000  # POROSITY 15

    CONSTANT   1.000000000000E+000  # POROSITY 16

    CONSTANT   1.000000000000E+000  # POROSITY 17

    CONSTANT   1.000000000000E+000  # POROSITY 18

    CONSTANT   1.000000000000E+000  # POROSITY 19

    CONSTANT   1.000000000000E+000  # POROSITY 20

    CONSTANT   1.000000000000E+000  # POROSITY 21

    CONSTANT   1.000000000000E+000  # POROSITY 22

    CONSTANT   1.000000000000E+000  # POROSITY 23

    CONSTANT   1.000000000000E+000  # POROSITY 24

    CONSTANT   1.000000000000E+000  # POROSITY 25

    CONSTANT   1.000000000000E+000  # POROSITY 26

    CONSTANT   1.000000000000E+000  # POROSITY 27

    CONSTANT   1.000000000000E+000  # POROSITY 28

    CONSTANT   1.000000000000E+000  # POROSITY 29

    CONSTANT   1.000000000000E+000  # POROSITY 30

    CONSTANT   1.000000000000E+000  # POROSITY 31

    CONSTANT   1.000000000000E+000  # POROSITY 32

    CONSTANT   1.000000000000E+000  # POROSITY 33

    CONSTANT   1.000000000000E+000  # POROSITY 34

    CONSTANT   1.000000000000E+000  # POROSITY 35

    CONSTANT   1.000000000000E+000  # POROSITY 36

    CONSTANT   1.000000000000E+000  # POROSITY 37

    CONSTANT   1.000000000000E+000  # POROSITY 38

    CONSTANT   1.000000000000E+000  # POROSITY 39

    CONSTANT   1.000000000000E+000  # POROSITY 40

    CONSTANT   1.000000000000E+000  # POROSITY 41

    CONSTANT   1.000000000000E+000  # POROSITY 42

    CONSTANT   1.000000000000E+000  # POROSITY 43

    CONSTANT   1.000000000000E+000  # POROSITY 44

    CONSTANT   1.000000000000E+000  # POROSITY 45

    CONSTANT   1.000000000000E+000  # POROSITY 46

    CONSTANT   1.000000000000E+000  # POROSITY 47

    CONSTANT   1.000000000000E+000  # POROSITY 48

    CONSTANT   1.000000000000E+000  # POROSITY 49

    CONSTANT   1.000000000000E+000  # POROSITY 50

    CONSTANT   1.000000000000E+000  # POROSITY 51

    CONSTANT   1.000000000000E+000  # POROSITY 52

    CONSTANT   1.000000000000E+000  # POROSITY 53

    CONSTANT   1.000000000000E+000  # POROSITY 54

    CONSTANT   1.000000000000E+000  # POROSITY 55

    CONSTANT   1.000000000000E+000  # POROSITY 56

    CONSTANT   1.000000000000E+000  # POROSITY 57

END GRIDDATA

