# CNC: GWT Constant Concentration Package file created on 7/24/2023 by ModelMuse version 5.1.1.34.
BEGIN OPTIONS
    AUXILIARY IFACE
    BOUNDNAMES
    PRINT_INPUT
    SAVE_FLOWS
END OPTIONS

BEGIN DIMENSIONS
  MAXBOUND    67
END DIMENSIONS

BEGIN PERIOD      1
     1     1    67  1.100715570000E-004      0 'Object2'  # Stress periods: Layer Row Column Conc IFACE boundname
     1     1    66  1.100721460000E-004      0 'Object2'  # Stress periods: Layer Row Column Conc IFACE boundname
     1     1    65  1.099572130000E-004      0 'Object2'  # Stress periods: Layer Row Column Conc IFACE boundname
     1     1    64  1.100857020000E-004      0 'Object2'  # Stress periods: Layer Row Column Conc IFACE boundname
     1     1    63  1.099673090000E-004      0 'Object2'  # Stress periods: Layer Row Column Conc IFACE boundname
     1     1    62  1.099511760000E-004      0 'Object2'  # Stress periods: Layer Row Column Conc IFACE boundname
     1     1    61  1.100858120000E-004      0 'Object2'  # Stress periods: Layer Row Column Conc IFACE boundname
     1     1    60  1.101088020000E-004      0 'Object2'  # Stress periods: Layer Row Column Conc IFACE boundname
     1     1    59  1.100645430000E-004      0 'Object2'  # Stress periods: Layer Row Column Conc IFACE boundname
     1     1    58  1.101255010000E-004      0 'Object2'  # Stress periods: Layer Row Column Conc IFACE boundname
     1     1    57  1.101047030000E-004      0 'Object2'  # Stress periods: Layer Row Column Conc IFACE boundname
     1     1    56  1.100923380000E-004      0 'Object2'  # Stress periods: Layer Row Column Conc IFACE boundname
     1     1    55  1.099788450000E-004      0 'Object2'  # Stress periods: Layer Row Column Conc IFACE boundname
     1     1    54  1.100127800000E-004      0 'Object2'  # Stress periods: Layer Row Column Conc IFACE boundname
     1     1    53  1.099705090000E-004      0 'Object2'  # Stress periods: Layer Row Column Conc IFACE boundname
     1     1    52  1.099621460000E-004      0 'Object2'  # Stress periods: Layer Row Column Conc IFACE boundname
     1     1    51  1.100722810000E-004      0 'Object2'  # Stress periods: Layer Row Column Conc IFACE boundname
     1     1    50  1.100309230000E-004      0 'Object2'  # Stress periods: Layer Row Column Conc IFACE boundname
     1     1    49  1.100549390000E-004      0 'Object2'  # Stress periods: Layer Row Column Conc IFACE boundname
     1     1    48  1.100214030000E-004      0 'Object2'  # Stress periods: Layer Row Column Conc IFACE boundname
     1     1    47  1.098995420000E-004      0 'Object2'  # Stress periods: Layer Row Column Conc IFACE boundname
     1     1    46  1.100642810000E-004      0 'Object2'  # Stress periods: Layer Row Column Conc IFACE boundname
     1     1    45  1.100925400000E-004      0 'Object2'  # Stress periods: Layer Row Column Conc IFACE boundname
     1     1    44  1.098906130000E-004      0 'Object2'  # Stress periods: Layer Row Column Conc IFACE boundname
     1     1    43  1.099734350000E-004      0 'Object2'  # Stress periods: Layer Row Column Conc IFACE boundname
     1     1    42  1.099175330000E-004      0 'Object2'  # Stress periods: Layer Row Column Conc IFACE boundname
     1     1    41  1.099209780000E-004      0 'Object2'  # Stress periods: Layer Row Column Conc IFACE boundname
     1     1    40  1.100310060000E-004      0 'Object2'  # Stress periods: Layer Row Column Conc IFACE boundname
     1     1    39  1.100145630000E-004      0 'Object2'  # Stress periods: Layer Row Column Conc IFACE boundname
     1     1    38  1.099443850000E-004      0 'Object2'  # Stress periods: Layer Row Column Conc IFACE boundname
     1     1    37  1.099464040000E-004      0 'Object2'  # Stress periods: Layer Row Column Conc IFACE boundname
     1     1    36  1.099052550000E-004      0 'Object2'  # Stress periods: Layer Row Column Conc IFACE boundname
     1     1    35  1.098985860000E-004      0 'Object2'  # Stress periods: Layer Row Column Conc IFACE boundname
     1     1    34  1.101233560000E-004      0 'Object2'  # Stress periods: Layer Row Column Conc IFACE boundname
     1     1    33  1.099193380000E-004      0 'Object2'  # Stress periods: Layer Row Column Conc IFACE boundname
     1     1    32  1.100519980000E-004      0 'Object2'  # Stress periods: Layer Row Column Conc IFACE boundname
     1     1    31  1.099490060000E-004      0 'Object2'  # Stress periods: Layer Row Column Conc IFACE boundname
     1     1    30  1.100372670000E-004      0 'Object2'  # Stress periods: Layer Row Column Conc IFACE boundname
     1     1    29  1.100044570000E-004      0 'Object2'  # Stress periods: Layer Row Column Conc IFACE boundname
     1     1    28  1.098829980000E-004      0 'Object2'  # Stress periods: Layer Row Column Conc IFACE boundname
     1     1    27  1.099672540000E-004      0 'Object2'  # Stress periods: Layer Row Column Conc IFACE boundname
     1     1    26  1.101224480000E-004      0 'Object2'  # Stress periods: Layer Row Column Conc IFACE boundname
     1     1    25  1.100600320000E-004      0 'Object2'  # Stress periods: Layer Row Column Conc IFACE boundname
     1     1    24  1.098894700000E-004      0 'Object2'  # Stress periods: Layer Row Column Conc IFACE boundname
     1     1    23  1.099101660000E-004      0 'Object2'  # Stress periods: Layer Row Column Conc IFACE boundname
     1     1    22  1.099829090000E-004      0 'Object2'  # Stress periods: Layer Row Column Conc IFACE boundname
     1     1    21  1.099942740000E-004      0 'Object2'  # Stress periods: Layer Row Column Conc IFACE boundname
     1     1    20  1.099441810000E-004      0 'Object2'  # Stress periods: Layer Row Column Conc IFACE boundname
     1     1    19  1.101257290000E-004      0 'Object2'  # Stress periods: Layer Row Column Conc IFACE boundname
     1     1    18  1.100137910000E-004      0 'Object2'  # Stress periods: Layer Row Column Conc IFACE boundname
     1     1    17  1.100421460000E-004      0 'Object2'  # Stress periods: Layer Row Column Conc IFACE boundname
     1     1    16  1.100199250000E-004      0 'Object2'  # Stress periods: Layer Row Column Conc IFACE boundname
     1     1    15  1.101018170000E-004      0 'Object2'  # Stress periods: Layer Row Column Conc IFACE boundname
     1     1    14  1.098876330000E-004      0 'Object2'  # Stress periods: Layer Row Column Conc IFACE boundname
     1     1    13  1.100675550000E-004      0 'Object2'  # Stress periods: Layer Row Column Conc IFACE boundname
     1     1    12  1.100137510000E-004      0 'Object2'  # Stress periods: Layer Row Column Conc IFACE boundname
     1     1    11  1.100484040000E-004      0 'Object2'  # Stress periods: Layer Row Column Conc IFACE boundname
     1     1    10  1.101143870000E-004      0 'Object2'  # Stress periods: Layer Row Column Conc IFACE boundname
     1     1     9  1.099829110000E-004      0 'Object2'  # Stress periods: Layer Row Column Conc IFACE boundname
     1     1     8  1.099923750000E-004      0 'Object2'  # Stress periods: Layer Row Column Conc IFACE boundname
     1     1     7  1.100986280000E-004      0 'Object2'  # Stress periods: Layer Row Column Conc IFACE boundname
     1     1     6  1.099428570000E-004      0 'Object2'  # Stress periods: Layer Row Column Conc IFACE boundname
     1     1     5  1.098833470000E-004      0 'Object2'  # Stress periods: Layer Row Column Conc IFACE boundname
     1     1     4  1.099792910000E-004      0 'Object2'  # Stress periods: Layer Row Column Conc IFACE boundname
     1     1     3  1.100347190000E-004      0 'Object2'  # Stress periods: Layer Row Column Conc IFACE boundname
     1     1     2  1.100069040000E-004      0 'Object2'  # Stress periods: Layer Row Column Conc IFACE boundname
     1     1     1  1.098919580000E-004      0 'Object2'  # Stress periods: Layer Row Column Conc IFACE boundname
END PERIOD 

