# STO: Storage package file created on 7/24/2023 by ModelMuse version 5.1.1.34.
BEGIN OPTIONS
    SAVE_FLOWS
END OPTIONS

BEGIN GRIDDATA
  ICONVERT LAYERED IPRN     5
    CONSTANT      0 # ICONVERT 1
    CONSTANT      0 # ICONVERT 2
    CONSTANT      0 # ICONVERT 3
    CONSTANT      0 # ICONVERT 4
    CONSTANT      0 # ICONVERT 5
    CONSTANT      0 # ICONVERT 6
    CONSTANT      0 # ICONVERT 7
    CONSTANT      0 # ICONVERT 8
    CONSTANT      0 # ICONVERT 9
    CONSTANT      0 # ICONVERT 10
    CONSTANT      0 # ICONVERT 11
    CONSTANT      0 # ICONVERT 12
    CONSTANT      0 # ICONVERT 13
    CONSTANT      0 # ICONVERT 14
    CONSTANT      0 # ICONVERT 15
    CONSTANT      0 # ICONVERT 16
    CONSTANT      0 # ICONVERT 17
    CONSTANT      0 # ICONVERT 18
    CONSTANT      0 # ICONVERT 19
    CONSTANT      0 # ICONVERT 20
    CONSTANT      0 # ICONVERT 21
    CONSTANT      0 # ICONVERT 22
    CONSTANT      0 # ICONVERT 23
    CONSTANT      0 # ICONVERT 24
    CONSTANT      0 # ICONVERT 25
    CONSTANT      0 # ICONVERT 26
    CONSTANT      0 # ICONVERT 27
    CONSTANT      0 # ICONVERT 28
    CONSTANT      0 # ICONVERT 29
    CONSTANT      0 # ICONVERT 30
    CONSTANT      0 # ICONVERT 31
    CONSTANT      0 # ICONVERT 32
    CONSTANT      0 # ICONVERT 33
    CONSTANT      0 # ICONVERT 34
    CONSTANT      0 # ICONVERT 35
    CONSTANT      0 # ICONVERT 36
    CONSTANT      0 # ICONVERT 37
    CONSTANT      0 # ICONVERT 38
    CONSTANT      0 # ICONVERT 39
    CONSTANT      0 # ICONVERT 40
    CONSTANT      0 # ICONVERT 41
    CONSTANT      0 # ICONVERT 42
    CONSTANT      0 # ICONVERT 43
    CONSTANT      0 # ICONVERT 44
    CONSTANT      0 # ICONVERT 45
    CONSTANT      0 # ICONVERT 46
    CONSTANT      0 # ICONVERT 47
    CONSTANT      0 # ICONVERT 48
    CONSTANT      0 # ICONVERT 49
    CONSTANT      0 # ICONVERT 50
    CONSTANT      0 # ICONVERT 51
    CONSTANT      0 # ICONVERT 52
    CONSTANT      0 # ICONVERT 53
    CONSTANT      0 # ICONVERT 54
    CONSTANT      0 # ICONVERT 55
    CONSTANT      0 # ICONVERT 56
    CONSTANT      0 # ICONVERT 57
  SS LAYERED IPRN    12
    CONSTANT   3.800000000000E-010  # SS 1

    CONSTANT   3.800000000000E-010  # SS 2

    CONSTANT   3.800000000000E-010  # SS 3

    CONSTANT   3.800000000000E-010  # SS 4

    CONSTANT   3.800000000000E-010  # SS 5

    CONSTANT   3.800000000000E-010  # SS 6

    CONSTANT   3.800000000000E-010  # SS 7

    CONSTANT   3.800000000000E-010  # SS 8

    CONSTANT   3.800000000000E-010  # SS 9

    CONSTANT   3.800000000000E-010  # SS 10

    CONSTANT   3.800000000000E-010  # SS 11

    CONSTANT   3.800000000000E-010  # SS 12

    CONSTANT   3.800000000000E-010  # SS 13

    CONSTANT   3.800000000000E-010  # SS 14

    CONSTANT   3.800000000000E-010  # SS 15

    CONSTANT   3.800000000000E-010  # SS 16

    CONSTANT   3.800000000000E-010  # SS 17

    CONSTANT   3.800000000000E-010  # SS 18

    CONSTANT   3.800000000000E-010  # SS 19

    CONSTANT   3.800000000000E-010  # SS 20

    CONSTANT   3.800000000000E-010  # SS 21

    CONSTANT   3.800000000000E-010  # SS 22

    CONSTANT   3.800000000000E-010  # SS 23

    CONSTANT   3.800000000000E-010  # SS 24

    CONSTANT   3.800000000000E-010  # SS 25

    CONSTANT   3.800000000000E-010  # SS 26

    CONSTANT   3.800000000000E-010  # SS 27

    CONSTANT   3.800000000000E-010  # SS 28

    CONSTANT   3.800000000000E-010  # SS 29

    CONSTANT   3.800000000000E-010  # SS 30

    CONSTANT   3.800000000000E-010  # SS 31

    CONSTANT   3.800000000000E-010  # SS 32

    CONSTANT   3.800000000000E-010  # SS 33

    CONSTANT   3.800000000000E-010  # SS 34

    CONSTANT   3.800000000000E-010  # SS 35

    CONSTANT   3.800000000000E-010  # SS 36

    CONSTANT   3.800000000000E-010  # SS 37

    CONSTANT   3.800000000000E-010  # SS 38

    CONSTANT   3.800000000000E-010  # SS 39

    CONSTANT   3.800000000000E-010  # SS 40

    CONSTANT   3.800000000000E-010  # SS 41

    CONSTANT   3.800000000000E-010  # SS 42

    CONSTANT   3.800000000000E-010  # SS 43

    CONSTANT   3.800000000000E-010  # SS 44

    CONSTANT   3.800000000000E-010  # SS 45

    CONSTANT   3.800000000000E-010  # SS 46

    CONSTANT   3.800000000000E-010  # SS 47

    CONSTANT   3.800000000000E-010  # SS 48

    CONSTANT   3.800000000000E-010  # SS 49

    CONSTANT   3.800000000000E-010  # SS 50

    CONSTANT   3.800000000000E-010  # SS 51

    CONSTANT   3.800000000000E-010  # SS 52

    CONSTANT   3.800000000000E-010  # SS 53

    CONSTANT   3.800000000000E-010  # SS 54

    CONSTANT   3.800000000000E-010  # SS 55

    CONSTANT   3.800000000000E-010  # SS 56

    CONSTANT   3.800000000000E-010  # SS 57

  SY LAYERED IPRN    12
    CONSTANT   1.500000000000E-001  # SY 1

    CONSTANT   1.500000000000E-001  # SY 2

    CONSTANT   1.500000000000E-001  # SY 3

    CONSTANT   1.500000000000E-001  # SY 4

    CONSTANT   1.500000000000E-001  # SY 5

    CONSTANT   1.500000000000E-001  # SY 6

    CONSTANT   1.500000000000E-001  # SY 7

    CONSTANT   1.500000000000E-001  # SY 8

    CONSTANT   1.500000000000E-001  # SY 9

    CONSTANT   1.500000000000E-001  # SY 10

    CONSTANT   1.500000000000E-001  # SY 11

    CONSTANT   1.500000000000E-001  # SY 12

    CONSTANT   1.500000000000E-001  # SY 13

    CONSTANT   1.500000000000E-001  # SY 14

    CONSTANT   1.500000000000E-001  # SY 15

    CONSTANT   1.500000000000E-001  # SY 16

    CONSTANT   1.500000000000E-001  # SY 17

    CONSTANT   1.500000000000E-001  # SY 18

    CONSTANT   1.500000000000E-001  # SY 19

    CONSTANT   1.500000000000E-001  # SY 20

    CONSTANT   1.500000000000E-001  # SY 21

    CONSTANT   1.500000000000E-001  # SY 22

    CONSTANT   1.500000000000E-001  # SY 23

    CONSTANT   1.500000000000E-001  # SY 24

    CONSTANT   1.500000000000E-001  # SY 25

    CONSTANT   1.500000000000E-001  # SY 26

    CONSTANT   1.500000000000E-001  # SY 27

    CONSTANT   1.500000000000E-001  # SY 28

    CONSTANT   1.500000000000E-001  # SY 29

    CONSTANT   1.500000000000E-001  # SY 30

    CONSTANT   1.500000000000E-001  # SY 31

    CONSTANT   1.500000000000E-001  # SY 32

    CONSTANT   1.500000000000E-001  # SY 33

    CONSTANT   1.500000000000E-001  # SY 34

    CONSTANT   1.500000000000E-001  # SY 35

    CONSTANT   1.500000000000E-001  # SY 36

    CONSTANT   1.500000000000E-001  # SY 37

    CONSTANT   1.500000000000E-001  # SY 38

    CONSTANT   1.500000000000E-001  # SY 39

    CONSTANT   1.500000000000E-001  # SY 40

    CONSTANT   1.500000000000E-001  # SY 41

    CONSTANT   1.500000000000E-001  # SY 42

    CONSTANT   1.500000000000E-001  # SY 43

    CONSTANT   1.500000000000E-001  # SY 44

    CONSTANT   1.500000000000E-001  # SY 45

    CONSTANT   1.500000000000E-001  # SY 46

    CONSTANT   1.500000000000E-001  # SY 47

    CONSTANT   1.500000000000E-001  # SY 48

    CONSTANT   1.500000000000E-001  # SY 49

    CONSTANT   1.500000000000E-001  # SY 50

    CONSTANT   1.500000000000E-001  # SY 51

    CONSTANT   1.500000000000E-001  # SY 52

    CONSTANT   1.500000000000E-001  # SY 53

    CONSTANT   1.500000000000E-001  # SY 54

    CONSTANT   1.500000000000E-001  # SY 55

    CONSTANT   1.500000000000E-001  # SY 56

    CONSTANT   1.500000000000E-001  # SY 57

END GRIDDATA

BEGIN PERIOD      1
  TRANSIENT
END PERIOD 

