# Initial Conditions Package file created on 12/8/2023 by ModelMuse version 5.1.1.46.
BEGIN GRIDDATA
  STRT LAYERED IPRN    12
    CONSTANT   7.500000000000E+001  # STRT Upper Aquifer Layer 1

    CONSTANT   7.500000000000E+001  # STRT Upper Aquifer Layer 2

    CONSTANT   7.500000000000E+001  # STRT Upper Aquifer Layer 3

    CONSTANT   7.500000000000E+001  # STRT Upper Aquifer Layer 4

    CONSTANT   7.500000000000E+001  # STRT Upper Aquifer Layer 5

    CONSTANT   7.500000000000E+001  # STRT Upper Aquifer Layer 6

    CONSTANT   7.500000000000E+001  # STRT Upper Aquifer Layer 7

    CONSTANT   7.500000000000E+001  # STRT Upper Aquifer Layer 8

    CONSTANT   7.500000000000E+001  # STRT Upper Aquifer Layer 9

    CONSTANT   7.500000000000E+001  # STRT Upper Aquifer Layer 10

    CONSTANT   7.500000000000E+001  # STRT Upper Aquifer Layer 11

    CONSTANT   7.500000000000E+001  # STRT Upper Aquifer Layer 12

    CONSTANT   7.500000000000E+001  # STRT Upper Aquifer Layer 13

    CONSTANT   7.500000000000E+001  # STRT Upper Aquifer Layer 14

    CONSTANT   7.500000000000E+001  # STRT Lower Aquifer Layer 1

    CONSTANT   7.500000000000E+001  # STRT Lower Aquifer Layer 2

    CONSTANT   7.500000000000E+001  # STRT Lower Aquifer Layer 3

    CONSTANT   7.500000000000E+001  # STRT Lower Aquifer Layer 4

    CONSTANT   7.500000000000E+001  # STRT Lower Aquifer Layer 5

    CONSTANT   7.500000000000E+001  # STRT Lower Aquifer Layer 6

    CONSTANT   7.500000000000E+001  # STRT Lower Aquifer Layer 7

    CONSTANT   7.500000000000E+001  # STRT Lower Aquifer Layer 8

    CONSTANT   7.500000000000E+001  # STRT Lower Aquifer Layer 9

    CONSTANT   7.500000000000E+001  # STRT Lower Aquifer Layer 10

    CONSTANT   7.500000000000E+001  # STRT Lower Aquifer Layer 11

    CONSTANT   7.500000000000E+001  # STRT Lower Aquifer Layer 12

    CONSTANT   7.500000000000E+001  # STRT Lower Aquifer Layer 13

    CONSTANT   7.500000000000E+001  # STRT Lower Aquifer Layer 14

    CONSTANT   7.500000000000E+001  # STRT Lower Aquifer Layer 15

    CONSTANT   7.500000000000E+001  # STRT Lower Aquifer Layer 16

    CONSTANT   7.500000000000E+001  # STRT Lower Aquifer Layer 17

    CONSTANT   7.500000000000E+001  # STRT Lower Aquifer Layer 18

    CONSTANT   7.500000000000E+001  # STRT Lower Aquifer Layer 19

    CONSTANT   7.500000000000E+001  # STRT Lower Aquifer Layer 20

    CONSTANT   7.500000000000E+001  # STRT Lower Aquifer Layer 21

    CONSTANT   7.500000000000E+001  # STRT Lower Aquifer Layer 22

    CONSTANT   7.500000000000E+001  # STRT Lower Aquifer Layer 23

    CONSTANT   7.500000000000E+001  # STRT Lower Aquifer Layer 24

    CONSTANT   7.500000000000E+001  # STRT Lower Aquifer Layer 25

    CONSTANT   7.500000000000E+001  # STRT Lower Aquifer Layer 26

    CONSTANT   7.500000000000E+001  # STRT Lower Aquifer Layer 27

    CONSTANT   7.500000000000E+001  # STRT Lower Aquifer Layer 28

    CONSTANT   7.500000000000E+001  # STRT Lower Aquifer Layer 29

    CONSTANT   7.500000000000E+001  # STRT Lower Aquifer Layer 30

    CONSTANT   7.500000000000E+001  # STRT Lower Aquifer Layer 31

    CONSTANT   7.500000000000E+001  # STRT Lower Aquifer Layer 32

    CONSTANT   7.500000000000E+001  # STRT Lower Aquifer Layer 33

    CONSTANT   7.500000000000E+001  # STRT Lower Aquifer Layer 34

    CONSTANT   7.500000000000E+001  # STRT Lower Aquifer Layer 35

    CONSTANT   7.500000000000E+001  # STRT Lower Aquifer Layer 36

    CONSTANT   7.500000000000E+001  # STRT Lower Aquifer Layer 37

    CONSTANT   7.500000000000E+001  # STRT Lower Aquifer Layer 38

    CONSTANT   7.500000000000E+001  # STRT Lower Aquifer Layer 39

    CONSTANT   7.500000000000E+001  # STRT Lower Aquifer Layer 40

    CONSTANT   7.500000000000E+001  # STRT Lower Aquifer Layer 41

    CONSTANT   7.500000000000E+001  # STRT Lower Aquifer Layer 42

    CONSTANT   7.500000000000E+001  # STRT Lower Aquifer Layer 43

END GRIDDATA

