# Transport name file for Chem file created on 7/24/2023 by ModelMuse version 5.1.1.34.
BEGIN OPTIONS
  LIST SaltLake.Chem.lst
    PRINT_INPUT
    SAVE_FLOWS
END OPTIONS

BEGIN PACKAGES
  DIS6 SaltLake.Chem.dis
  OC6 SaltLake.Chem.oc
  ADV6 SaltLake.Chem.adv
  DSP6 SaltLake.Chem.dsp
  SSM6 SaltLake.Chem.ssm
  IC6 SaltLake.Chem.ic
  MST6 SaltLake.Chem.mst
  CNC6 SaltLake.Chem.cnc
END PACKAGES
