BEGIN TIMING
  TDIS6 'SaltLake.tdis'
END TIMING

BEGIN MODELS
  GWF6 'SaltLake.nam' 'MODFLOW'
  GWT6 'SaltLake.Chem.Gwt_nam' 'Chem'
END MODELS

BEGIN EXCHANGES
  GWF6-GWT6 SaltLake.Chem.gwfgwt MODFLOW Chem
END EXCHANGES

BEGIN SOLUTIONGROUP     1
  MXITER     1
  IMS6 'SaltLake.ims' 'MODFLOW' 
  IMS6 'SaltLake.Chem.ims' 'Chem' 
END SOLUTIONGROUP

