# BUY: Buoyancy Package) file created on 7/24/2023 by ModelMuse version 5.1.1.34.
BEGIN OPTIONS
  DENSEREF  1.065000000000E-003 
END OPTIONS

BEGIN DIMENSIONS
  NRHOSPECIES     1
END DIMENSIONS

BEGIN PACKAGEDATA
     1  6.460000000000E-001   0.000000000000E+000  Chem Chem
END PACKAGEDATA

