# NPF: Node Property Flow package file created on 7/24/2023 by ModelMuse version 5.1.1.34.
BEGIN OPTIONS
    SAVE_FLOWS
  SAVE_SPECIFIC_DISCHARGE
  SAVE_SATURATION
END OPTIONS


BEGIN GRIDDATA
  ICELLTYPE LAYERED IPRN     5
    CONSTANT      0 # ICELLTYPE 1
    CONSTANT      0 # ICELLTYPE 2
    CONSTANT      0 # ICELLTYPE 3
    CONSTANT      0 # ICELLTYPE 4
    CONSTANT      0 # ICELLTYPE 5
    CONSTANT      0 # ICELLTYPE 6
    CONSTANT      0 # ICELLTYPE 7
    CONSTANT      0 # ICELLTYPE 8
    CONSTANT      0 # ICELLTYPE 9
    CONSTANT      0 # ICELLTYPE 10
    CONSTANT      0 # ICELLTYPE 11
    CONSTANT      0 # ICELLTYPE 12
    CONSTANT      0 # ICELLTYPE 13
    CONSTANT      0 # ICELLTYPE 14
    CONSTANT      0 # ICELLTYPE 15
    CONSTANT      0 # ICELLTYPE 16
    CONSTANT      0 # ICELLTYPE 17
    CONSTANT      0 # ICELLTYPE 18
    CONSTANT      0 # ICELLTYPE 19
    CONSTANT      0 # ICELLTYPE 20
    CONSTANT      0 # ICELLTYPE 21
    CONSTANT      0 # ICELLTYPE 22
    CONSTANT      0 # ICELLTYPE 23
    CONSTANT      0 # ICELLTYPE 24
    CONSTANT      0 # ICELLTYPE 25
    CONSTANT      0 # ICELLTYPE 26
    CONSTANT      0 # ICELLTYPE 27
    CONSTANT      0 # ICELLTYPE 28
    CONSTANT      0 # ICELLTYPE 29
    CONSTANT      0 # ICELLTYPE 30
    CONSTANT      0 # ICELLTYPE 31
    CONSTANT      0 # ICELLTYPE 32
    CONSTANT      0 # ICELLTYPE 33
    CONSTANT      0 # ICELLTYPE 34
    CONSTANT      0 # ICELLTYPE 35
    CONSTANT      0 # ICELLTYPE 36
    CONSTANT      0 # ICELLTYPE 37
    CONSTANT      0 # ICELLTYPE 38
    CONSTANT      0 # ICELLTYPE 39
    CONSTANT      0 # ICELLTYPE 40
    CONSTANT      0 # ICELLTYPE 41
    CONSTANT      0 # ICELLTYPE 42
    CONSTANT      0 # ICELLTYPE 43
    CONSTANT      0 # ICELLTYPE 44
    CONSTANT      0 # ICELLTYPE 45
    CONSTANT      0 # ICELLTYPE 46
    CONSTANT      0 # ICELLTYPE 47
    CONSTANT      0 # ICELLTYPE 48
    CONSTANT      0 # ICELLTYPE 49
    CONSTANT      0 # ICELLTYPE 50
    CONSTANT      0 # ICELLTYPE 51
    CONSTANT      0 # ICELLTYPE 52
    CONSTANT      0 # ICELLTYPE 53
    CONSTANT      0 # ICELLTYPE 54
    CONSTANT      0 # ICELLTYPE 55
    CONSTANT      0 # ICELLTYPE 56
    CONSTANT      0 # ICELLTYPE 57
  K LAYERED IPRN    12
    CONSTANT   3.050000000000E+000  # K 1

    CONSTANT   3.050000000000E+000  # K 2

    CONSTANT   3.050000000000E+000  # K 3

    CONSTANT   3.050000000000E+000  # K 4

    CONSTANT   3.050000000000E+000  # K 5

    CONSTANT   3.050000000000E+000  # K 6

    CONSTANT   3.050000000000E+000  # K 7

    CONSTANT   3.050000000000E+000  # K 8

    CONSTANT   3.050000000000E+000  # K 9

    CONSTANT   3.050000000000E+000  # K 10

    CONSTANT   3.050000000000E+000  # K 11

    CONSTANT   3.050000000000E+000  # K 12

    CONSTANT   3.050000000000E+000  # K 13

    CONSTANT   3.050000000000E+000  # K 14

    CONSTANT   3.050000000000E+000  # K 15

    CONSTANT   3.050000000000E+000  # K 16

    CONSTANT   3.050000000000E+000  # K 17

    CONSTANT   3.050000000000E+000  # K 18

    CONSTANT   3.050000000000E+000  # K 19

    CONSTANT   3.050000000000E+000  # K 20

    CONSTANT   3.050000000000E+000  # K 21

    CONSTANT   3.050000000000E+000  # K 22

    CONSTANT   3.050000000000E+000  # K 23

    CONSTANT   3.050000000000E+000  # K 24

    CONSTANT   3.050000000000E+000  # K 25

    CONSTANT   3.050000000000E+000  # K 26

    CONSTANT   3.050000000000E+000  # K 27

    CONSTANT   3.050000000000E+000  # K 28

    CONSTANT   3.050000000000E+000  # K 29

    CONSTANT   3.050000000000E+000  # K 30

    CONSTANT   3.050000000000E+000  # K 31

    CONSTANT   3.050000000000E+000  # K 32

    CONSTANT   3.050000000000E+000  # K 33

    CONSTANT   3.050000000000E+000  # K 34

    CONSTANT   3.050000000000E+000  # K 35

    CONSTANT   3.050000000000E+000  # K 36

    CONSTANT   3.050000000000E+000  # K 37

    CONSTANT   3.050000000000E+000  # K 38

    CONSTANT   3.050000000000E+000  # K 39

    CONSTANT   3.050000000000E+000  # K 40

    CONSTANT   3.050000000000E+000  # K 41

    CONSTANT   3.050000000000E+000  # K 42

    CONSTANT   3.050000000000E+000  # K 43

    CONSTANT   3.050000000000E+000  # K 44

    CONSTANT   3.050000000000E+000  # K 45

    CONSTANT   3.050000000000E+000  # K 46

    CONSTANT   3.050000000000E+000  # K 47

    CONSTANT   3.050000000000E+000  # K 48

    CONSTANT   3.050000000000E+000  # K 49

    CONSTANT   3.050000000000E+000  # K 50

    CONSTANT   3.050000000000E+000  # K 51

    CONSTANT   3.050000000000E+000  # K 52

    CONSTANT   3.050000000000E+000  # K 53

    CONSTANT   3.050000000000E+000  # K 54

    CONSTANT   3.050000000000E+000  # K 55

    CONSTANT   3.050000000000E+000  # K 56

    CONSTANT   3.050000000000E+000  # K 57

  K33 LAYERED IPRN    12
    CONSTANT   3.050000000000E+000  # K33 1

    CONSTANT   3.050000000000E+000  # K33 2

    CONSTANT   3.050000000000E+000  # K33 3

    CONSTANT   3.050000000000E+000  # K33 4

    CONSTANT   3.050000000000E+000  # K33 5

    CONSTANT   3.050000000000E+000  # K33 6

    CONSTANT   3.050000000000E+000  # K33 7

    CONSTANT   3.050000000000E+000  # K33 8

    CONSTANT   3.050000000000E+000  # K33 9

    CONSTANT   3.050000000000E+000  # K33 10

    CONSTANT   3.050000000000E+000  # K33 11

    CONSTANT   3.050000000000E+000  # K33 12

    CONSTANT   3.050000000000E+000  # K33 13

    CONSTANT   3.050000000000E+000  # K33 14

    CONSTANT   3.050000000000E+000  # K33 15

    CONSTANT   3.050000000000E+000  # K33 16

    CONSTANT   3.050000000000E+000  # K33 17

    CONSTANT   3.050000000000E+000  # K33 18

    CONSTANT   3.050000000000E+000  # K33 19

    CONSTANT   3.050000000000E+000  # K33 20

    CONSTANT   3.050000000000E+000  # K33 21

    CONSTANT   3.050000000000E+000  # K33 22

    CONSTANT   3.050000000000E+000  # K33 23

    CONSTANT   3.050000000000E+000  # K33 24

    CONSTANT   3.050000000000E+000  # K33 25

    CONSTANT   3.050000000000E+000  # K33 26

    CONSTANT   3.050000000000E+000  # K33 27

    CONSTANT   3.050000000000E+000  # K33 28

    CONSTANT   3.050000000000E+000  # K33 29

    CONSTANT   3.050000000000E+000  # K33 30

    CONSTANT   3.050000000000E+000  # K33 31

    CONSTANT   3.050000000000E+000  # K33 32

    CONSTANT   3.050000000000E+000  # K33 33

    CONSTANT   3.050000000000E+000  # K33 34

    CONSTANT   3.050000000000E+000  # K33 35

    CONSTANT   3.050000000000E+000  # K33 36

    CONSTANT   3.050000000000E+000  # K33 37

    CONSTANT   3.050000000000E+000  # K33 38

    CONSTANT   3.050000000000E+000  # K33 39

    CONSTANT   3.050000000000E+000  # K33 40

    CONSTANT   3.050000000000E+000  # K33 41

    CONSTANT   3.050000000000E+000  # K33 42

    CONSTANT   3.050000000000E+000  # K33 43

    CONSTANT   3.050000000000E+000  # K33 44

    CONSTANT   3.050000000000E+000  # K33 45

    CONSTANT   3.050000000000E+000  # K33 46

    CONSTANT   3.050000000000E+000  # K33 47

    CONSTANT   3.050000000000E+000  # K33 48

    CONSTANT   3.050000000000E+000  # K33 49

    CONSTANT   3.050000000000E+000  # K33 50

    CONSTANT   3.050000000000E+000  # K33 51

    CONSTANT   3.050000000000E+000  # K33 52

    CONSTANT   3.050000000000E+000  # K33 53

    CONSTANT   3.050000000000E+000  # K33 54

    CONSTANT   3.050000000000E+000  # K33 55

    CONSTANT   3.050000000000E+000  # K33 56

    CONSTANT   3.050000000000E+000  # K33 57

  K22 LAYERED IPRN    12
    CONSTANT   3.050000000000E+000  # K22 1

    CONSTANT   3.050000000000E+000  # K22 2

    CONSTANT   3.050000000000E+000  # K22 3

    CONSTANT   3.050000000000E+000  # K22 4

    CONSTANT   3.050000000000E+000  # K22 5

    CONSTANT   3.050000000000E+000  # K22 6

    CONSTANT   3.050000000000E+000  # K22 7

    CONSTANT   3.050000000000E+000  # K22 8

    CONSTANT   3.050000000000E+000  # K22 9

    CONSTANT   3.050000000000E+000  # K22 10

    CONSTANT   3.050000000000E+000  # K22 11

    CONSTANT   3.050000000000E+000  # K22 12

    CONSTANT   3.050000000000E+000  # K22 13

    CONSTANT   3.050000000000E+000  # K22 14

    CONSTANT   3.050000000000E+000  # K22 15

    CONSTANT   3.050000000000E+000  # K22 16

    CONSTANT   3.050000000000E+000  # K22 17

    CONSTANT   3.050000000000E+000  # K22 18

    CONSTANT   3.050000000000E+000  # K22 19

    CONSTANT   3.050000000000E+000  # K22 20

    CONSTANT   3.050000000000E+000  # K22 21

    CONSTANT   3.050000000000E+000  # K22 22

    CONSTANT   3.050000000000E+000  # K22 23

    CONSTANT   3.050000000000E+000  # K22 24

    CONSTANT   3.050000000000E+000  # K22 25

    CONSTANT   3.050000000000E+000  # K22 26

    CONSTANT   3.050000000000E+000  # K22 27

    CONSTANT   3.050000000000E+000  # K22 28

    CONSTANT   3.050000000000E+000  # K22 29

    CONSTANT   3.050000000000E+000  # K22 30

    CONSTANT   3.050000000000E+000  # K22 31

    CONSTANT   3.050000000000E+000  # K22 32

    CONSTANT   3.050000000000E+000  # K22 33

    CONSTANT   3.050000000000E+000  # K22 34

    CONSTANT   3.050000000000E+000  # K22 35

    CONSTANT   3.050000000000E+000  # K22 36

    CONSTANT   3.050000000000E+000  # K22 37

    CONSTANT   3.050000000000E+000  # K22 38

    CONSTANT   3.050000000000E+000  # K22 39

    CONSTANT   3.050000000000E+000  # K22 40

    CONSTANT   3.050000000000E+000  # K22 41

    CONSTANT   3.050000000000E+000  # K22 42

    CONSTANT   3.050000000000E+000  # K22 43

    CONSTANT   3.050000000000E+000  # K22 44

    CONSTANT   3.050000000000E+000  # K22 45

    CONSTANT   3.050000000000E+000  # K22 46

    CONSTANT   3.050000000000E+000  # K22 47

    CONSTANT   3.050000000000E+000  # K22 48

    CONSTANT   3.050000000000E+000  # K22 49

    CONSTANT   3.050000000000E+000  # K22 50

    CONSTANT   3.050000000000E+000  # K22 51

    CONSTANT   3.050000000000E+000  # K22 52

    CONSTANT   3.050000000000E+000  # K22 53

    CONSTANT   3.050000000000E+000  # K22 54

    CONSTANT   3.050000000000E+000  # K22 55

    CONSTANT   3.050000000000E+000  # K22 56

    CONSTANT   3.050000000000E+000  # K22 57

  angle1 LAYERED IPRN    12
    CONSTANT   0.000000000000E+000  # angle1 1

    CONSTANT   0.000000000000E+000  # angle1 2

    CONSTANT   0.000000000000E+000  # angle1 3

    CONSTANT   0.000000000000E+000  # angle1 4

    CONSTANT   0.000000000000E+000  # angle1 5

    CONSTANT   0.000000000000E+000  # angle1 6

    CONSTANT   0.000000000000E+000  # angle1 7

    CONSTANT   0.000000000000E+000  # angle1 8

    CONSTANT   0.000000000000E+000  # angle1 9

    CONSTANT   0.000000000000E+000  # angle1 10

    CONSTANT   0.000000000000E+000  # angle1 11

    CONSTANT   0.000000000000E+000  # angle1 12

    CONSTANT   0.000000000000E+000  # angle1 13

    CONSTANT   0.000000000000E+000  # angle1 14

    CONSTANT   0.000000000000E+000  # angle1 15

    CONSTANT   0.000000000000E+000  # angle1 16

    CONSTANT   0.000000000000E+000  # angle1 17

    CONSTANT   0.000000000000E+000  # angle1 18

    CONSTANT   0.000000000000E+000  # angle1 19

    CONSTANT   0.000000000000E+000  # angle1 20

    CONSTANT   0.000000000000E+000  # angle1 21

    CONSTANT   0.000000000000E+000  # angle1 22

    CONSTANT   0.000000000000E+000  # angle1 23

    CONSTANT   0.000000000000E+000  # angle1 24

    CONSTANT   0.000000000000E+000  # angle1 25

    CONSTANT   0.000000000000E+000  # angle1 26

    CONSTANT   0.000000000000E+000  # angle1 27

    CONSTANT   0.000000000000E+000  # angle1 28

    CONSTANT   0.000000000000E+000  # angle1 29

    CONSTANT   0.000000000000E+000  # angle1 30

    CONSTANT   0.000000000000E+000  # angle1 31

    CONSTANT   0.000000000000E+000  # angle1 32

    CONSTANT   0.000000000000E+000  # angle1 33

    CONSTANT   0.000000000000E+000  # angle1 34

    CONSTANT   0.000000000000E+000  # angle1 35

    CONSTANT   0.000000000000E+000  # angle1 36

    CONSTANT   0.000000000000E+000  # angle1 37

    CONSTANT   0.000000000000E+000  # angle1 38

    CONSTANT   0.000000000000E+000  # angle1 39

    CONSTANT   0.000000000000E+000  # angle1 40

    CONSTANT   0.000000000000E+000  # angle1 41

    CONSTANT   0.000000000000E+000  # angle1 42

    CONSTANT   0.000000000000E+000  # angle1 43

    CONSTANT   0.000000000000E+000  # angle1 44

    CONSTANT   0.000000000000E+000  # angle1 45

    CONSTANT   0.000000000000E+000  # angle1 46

    CONSTANT   0.000000000000E+000  # angle1 47

    CONSTANT   0.000000000000E+000  # angle1 48

    CONSTANT   0.000000000000E+000  # angle1 49

    CONSTANT   0.000000000000E+000  # angle1 50

    CONSTANT   0.000000000000E+000  # angle1 51

    CONSTANT   0.000000000000E+000  # angle1 52

    CONSTANT   0.000000000000E+000  # angle1 53

    CONSTANT   0.000000000000E+000  # angle1 54

    CONSTANT   0.000000000000E+000  # angle1 55

    CONSTANT   0.000000000000E+000  # angle1 56

    CONSTANT   0.000000000000E+000  # angle1 57

  angle2 LAYERED IPRN    12
    CONSTANT   0.000000000000E+000  # angle2 1

    CONSTANT   0.000000000000E+000  # angle2 2

    CONSTANT   0.000000000000E+000  # angle2 3

    CONSTANT   0.000000000000E+000  # angle2 4

    CONSTANT   0.000000000000E+000  # angle2 5

    CONSTANT   0.000000000000E+000  # angle2 6

    CONSTANT   0.000000000000E+000  # angle2 7

    CONSTANT   0.000000000000E+000  # angle2 8

    CONSTANT   0.000000000000E+000  # angle2 9

    CONSTANT   0.000000000000E+000  # angle2 10

    CONSTANT   0.000000000000E+000  # angle2 11

    CONSTANT   0.000000000000E+000  # angle2 12

    CONSTANT   0.000000000000E+000  # angle2 13

    CONSTANT   0.000000000000E+000  # angle2 14

    CONSTANT   0.000000000000E+000  # angle2 15

    CONSTANT   0.000000000000E+000  # angle2 16

    CONSTANT   0.000000000000E+000  # angle2 17

    CONSTANT   0.000000000000E+000  # angle2 18

    CONSTANT   0.000000000000E+000  # angle2 19

    CONSTANT   0.000000000000E+000  # angle2 20

    CONSTANT   0.000000000000E+000  # angle2 21

    CONSTANT   0.000000000000E+000  # angle2 22

    CONSTANT   0.000000000000E+000  # angle2 23

    CONSTANT   0.000000000000E+000  # angle2 24

    CONSTANT   0.000000000000E+000  # angle2 25

    CONSTANT   0.000000000000E+000  # angle2 26

    CONSTANT   0.000000000000E+000  # angle2 27

    CONSTANT   0.000000000000E+000  # angle2 28

    CONSTANT   0.000000000000E+000  # angle2 29

    CONSTANT   0.000000000000E+000  # angle2 30

    CONSTANT   0.000000000000E+000  # angle2 31

    CONSTANT   0.000000000000E+000  # angle2 32

    CONSTANT   0.000000000000E+000  # angle2 33

    CONSTANT   0.000000000000E+000  # angle2 34

    CONSTANT   0.000000000000E+000  # angle2 35

    CONSTANT   0.000000000000E+000  # angle2 36

    CONSTANT   0.000000000000E+000  # angle2 37

    CONSTANT   0.000000000000E+000  # angle2 38

    CONSTANT   0.000000000000E+000  # angle2 39

    CONSTANT   0.000000000000E+000  # angle2 40

    CONSTANT   0.000000000000E+000  # angle2 41

    CONSTANT   0.000000000000E+000  # angle2 42

    CONSTANT   0.000000000000E+000  # angle2 43

    CONSTANT   0.000000000000E+000  # angle2 44

    CONSTANT   0.000000000000E+000  # angle2 45

    CONSTANT   0.000000000000E+000  # angle2 46

    CONSTANT   0.000000000000E+000  # angle2 47

    CONSTANT   0.000000000000E+000  # angle2 48

    CONSTANT   0.000000000000E+000  # angle2 49

    CONSTANT   0.000000000000E+000  # angle2 50

    CONSTANT   0.000000000000E+000  # angle2 51

    CONSTANT   0.000000000000E+000  # angle2 52

    CONSTANT   0.000000000000E+000  # angle2 53

    CONSTANT   0.000000000000E+000  # angle2 54

    CONSTANT   0.000000000000E+000  # angle2 55

    CONSTANT   0.000000000000E+000  # angle2 56

    CONSTANT   0.000000000000E+000  # angle2 57

  angle3 LAYERED IPRN    12
    CONSTANT   0.000000000000E+000  # angle3 1

    CONSTANT   0.000000000000E+000  # angle3 2

    CONSTANT   0.000000000000E+000  # angle3 3

    CONSTANT   0.000000000000E+000  # angle3 4

    CONSTANT   0.000000000000E+000  # angle3 5

    CONSTANT   0.000000000000E+000  # angle3 6

    CONSTANT   0.000000000000E+000  # angle3 7

    CONSTANT   0.000000000000E+000  # angle3 8

    CONSTANT   0.000000000000E+000  # angle3 9

    CONSTANT   0.000000000000E+000  # angle3 10

    CONSTANT   0.000000000000E+000  # angle3 11

    CONSTANT   0.000000000000E+000  # angle3 12

    CONSTANT   0.000000000000E+000  # angle3 13

    CONSTANT   0.000000000000E+000  # angle3 14

    CONSTANT   0.000000000000E+000  # angle3 15

    CONSTANT   0.000000000000E+000  # angle3 16

    CONSTANT   0.000000000000E+000  # angle3 17

    CONSTANT   0.000000000000E+000  # angle3 18

    CONSTANT   0.000000000000E+000  # angle3 19

    CONSTANT   0.000000000000E+000  # angle3 20

    CONSTANT   0.000000000000E+000  # angle3 21

    CONSTANT   0.000000000000E+000  # angle3 22

    CONSTANT   0.000000000000E+000  # angle3 23

    CONSTANT   0.000000000000E+000  # angle3 24

    CONSTANT   0.000000000000E+000  # angle3 25

    CONSTANT   0.000000000000E+000  # angle3 26

    CONSTANT   0.000000000000E+000  # angle3 27

    CONSTANT   0.000000000000E+000  # angle3 28

    CONSTANT   0.000000000000E+000  # angle3 29

    CONSTANT   0.000000000000E+000  # angle3 30

    CONSTANT   0.000000000000E+000  # angle3 31

    CONSTANT   0.000000000000E+000  # angle3 32

    CONSTANT   0.000000000000E+000  # angle3 33

    CONSTANT   0.000000000000E+000  # angle3 34

    CONSTANT   0.000000000000E+000  # angle3 35

    CONSTANT   0.000000000000E+000  # angle3 36

    CONSTANT   0.000000000000E+000  # angle3 37

    CONSTANT   0.000000000000E+000  # angle3 38

    CONSTANT   0.000000000000E+000  # angle3 39

    CONSTANT   0.000000000000E+000  # angle3 40

    CONSTANT   0.000000000000E+000  # angle3 41

    CONSTANT   0.000000000000E+000  # angle3 42

    CONSTANT   0.000000000000E+000  # angle3 43

    CONSTANT   0.000000000000E+000  # angle3 44

    CONSTANT   0.000000000000E+000  # angle3 45

    CONSTANT   0.000000000000E+000  # angle3 46

    CONSTANT   0.000000000000E+000  # angle3 47

    CONSTANT   0.000000000000E+000  # angle3 48

    CONSTANT   0.000000000000E+000  # angle3 49

    CONSTANT   0.000000000000E+000  # angle3 50

    CONSTANT   0.000000000000E+000  # angle3 51

    CONSTANT   0.000000000000E+000  # angle3 52

    CONSTANT   0.000000000000E+000  # angle3 53

    CONSTANT   0.000000000000E+000  # angle3 54

    CONSTANT   0.000000000000E+000  # angle3 55

    CONSTANT   0.000000000000E+000  # angle3 56

    CONSTANT   0.000000000000E+000  # angle3 57

END GRIDDATA

