# Name File for MODFLOW created on 7/24/2023 by ModelMuse Version 5.1.1.34
BEGIN OPTIONS
  LIST SaltLake.lst
  PRINT_INPUT
  SAVE_FLOWS
END OPTIONS

BEGIN PACKAGES
  DIS6         SaltLake.dis  DIS
  IC6          SaltLake.ic  IC
  NPF6         SaltLake.npf  NPF
  STO6         SaltLake.sto  STO
  OC6          SaltLake.oc  OC
  CHD6         SaltLake.chd  CHD-1
  BUY6         SaltLake.buy  BUY6
  RCH6         SaltLake.rch  RCH-1
END PACKAGES
