# CHD: Time-Variant Specified-Head package file created on 7/24/2023 by ModelMuse version 5.1.1.34.
BEGIN OPTIONS
    AUXILIARY IFACE Chem
    BOUNDNAMES
    PRINT_INPUT
    SAVE_FLOWS
END OPTIONS

BEGIN DIMENSIONS
  MAXBOUND    34
END DIMENSIONS

BEGIN PERIOD      1
     1     1   102  7.500000000000E+001      0  8.400000000000E-005  'Object0'  # Data Set 6: Layer Row Column Shead IFACE Chem boundname
     1     1   103  7.500000000000E+001      0  8.400000000000E-005  'Object0'  # Data Set 6: Layer Row Column Shead IFACE Chem boundname
     1     1   104  7.500000000000E+001      0  8.400000000000E-005  'Object0'  # Data Set 6: Layer Row Column Shead IFACE Chem boundname
     1     1   105  7.500000000000E+001      0  8.400000000000E-005  'Object0'  # Data Set 6: Layer Row Column Shead IFACE Chem boundname
     1     1   106  7.500000000000E+001      0  8.400000000000E-005  'Object0'  # Data Set 6: Layer Row Column Shead IFACE Chem boundname
     1     1   107  7.500000000000E+001      0  8.400000000000E-005  'Object0'  # Data Set 6: Layer Row Column Shead IFACE Chem boundname
     1     1   108  7.500000000000E+001      0  8.400000000000E-005  'Object0'  # Data Set 6: Layer Row Column Shead IFACE Chem boundname
     1     1   109  7.500000000000E+001      0  8.400000000000E-005  'Object0'  # Data Set 6: Layer Row Column Shead IFACE Chem boundname
     1     1   110  7.500000000000E+001      0  8.400000000000E-005  'Object0'  # Data Set 6: Layer Row Column Shead IFACE Chem boundname
     1     1   111  7.500000000000E+001      0  8.400000000000E-005  'Object0'  # Data Set 6: Layer Row Column Shead IFACE Chem boundname
     1     1   112  7.500000000000E+001      0  8.400000000000E-005  'Object0'  # Data Set 6: Layer Row Column Shead IFACE Chem boundname
     1     1   113  7.500000000000E+001      0  8.400000000000E-005  'Object0'  # Data Set 6: Layer Row Column Shead IFACE Chem boundname
     1     1   114  7.500000000000E+001      0  8.400000000000E-005  'Object0'  # Data Set 6: Layer Row Column Shead IFACE Chem boundname
     1     1   115  7.500000000000E+001      0  8.400000000000E-005  'Object0'  # Data Set 6: Layer Row Column Shead IFACE Chem boundname
     1     1   116  7.500000000000E+001      0  8.400000000000E-005  'Object0'  # Data Set 6: Layer Row Column Shead IFACE Chem boundname
     1     1   117  7.500000000000E+001      0  8.400000000000E-005  'Object0'  # Data Set 6: Layer Row Column Shead IFACE Chem boundname
     1     1   118  7.500000000000E+001      0  8.400000000000E-005  'Object0'  # Data Set 6: Layer Row Column Shead IFACE Chem boundname
     1     1   119  7.500000000000E+001      0  8.400000000000E-005  'Object0'  # Data Set 6: Layer Row Column Shead IFACE Chem boundname
     1     1   120  7.500000000000E+001      0  8.400000000000E-005  'Object0'  # Data Set 6: Layer Row Column Shead IFACE Chem boundname
     1     1   121  7.500000000000E+001      0  8.400000000000E-005  'Object0'  # Data Set 6: Layer Row Column Shead IFACE Chem boundname
     1     1   122  7.500000000000E+001      0  8.400000000000E-005  'Object0'  # Data Set 6: Layer Row Column Shead IFACE Chem boundname
     1     1   123  7.500000000000E+001      0  8.400000000000E-005  'Object0'  # Data Set 6: Layer Row Column Shead IFACE Chem boundname
     1     1   124  7.500000000000E+001      0  8.400000000000E-005  'Object0'  # Data Set 6: Layer Row Column Shead IFACE Chem boundname
     1     1   125  7.500000000000E+001      0  8.400000000000E-005  'Object0'  # Data Set 6: Layer Row Column Shead IFACE Chem boundname
     1     1   126  7.500000000000E+001      0  8.400000000000E-005  'Object0'  # Data Set 6: Layer Row Column Shead IFACE Chem boundname
     1     1   127  7.500000000000E+001      0  8.400000000000E-005  'Object0'  # Data Set 6: Layer Row Column Shead IFACE Chem boundname
     1     1   128  7.500000000000E+001      0  8.400000000000E-005  'Object0'  # Data Set 6: Layer Row Column Shead IFACE Chem boundname
     1     1   129  7.500000000000E+001      0  8.400000000000E-005  'Object0'  # Data Set 6: Layer Row Column Shead IFACE Chem boundname
     1     1   130  7.500000000000E+001      0  8.400000000000E-005  'Object0'  # Data Set 6: Layer Row Column Shead IFACE Chem boundname
     1     1   131  7.500000000000E+001      0  8.400000000000E-005  'Object0'  # Data Set 6: Layer Row Column Shead IFACE Chem boundname
     1     1   132  7.500000000000E+001      0  8.400000000000E-005  'Object0'  # Data Set 6: Layer Row Column Shead IFACE Chem boundname
     1     1   133  7.500000000000E+001      0  8.400000000000E-005  'Object0'  # Data Set 6: Layer Row Column Shead IFACE Chem boundname
     1     1   134  7.500000000000E+001      0  8.400000000000E-005  'Object0'  # Data Set 6: Layer Row Column Shead IFACE Chem boundname
     1     1   135  7.500000000000E+001      0  8.400000000000E-005  'Object0'  # Data Set 6: Layer Row Column Shead IFACE Chem boundname
END PERIOD 

