# Name File for MODFLOW created on 6/20/2019 by ModelMuse Version 4.0.0.0
LIST             11 ..\..\output\output.SampleModelLgr\SampleModelLgr.lst REPLACE
DATA(BINARY)      9 ..\..\output\output.SampleModelLgr\SampleModelLgr.cbc REPLACE
DATA            131 ..\..\output\output.SampleModelLgr\SampleModelLgr.bfh_head REPLACE
DATA            132 ..\..\output\output.SampleModelLgr\SampleModelLgr.bfh_flux REPLACE
DIS              12 ..\..\model\model.SampleModelLgr\SampleModelLgr.dis OLD
BAS6             13 ..\..\model\model.SampleModelLgr\SampleModelLgr.bas OLD
OC               39 ..\..\model\model.SampleModelLgr\SampleModelLgr.oc OLD
DATA             37 ..\..\output\output.SampleModelLgr\SampleModelLgr.fhd REPLACE
DATA             38 ..\..\output\output.SampleModelLgr\SampleModelLgr.fdn REPLACE
PCG              18 ..\..\model\model.SampleModelLgr\SampleModelLgr.pcg OLD
LPF              14 ..\..\model\model.SampleModelLgr\SampleModelLgr.lpf OLD
RIV              21 ..\..\model\model.SampleModelLgr\SampleModelLgr.riv OLD
RVOB             48 ..\..\model\model.SampleModelLgr\SampleModelLgr.ob_rvob OLD
DATA             49 ..\..\output\output.SampleModelLgr\SampleModelLgr.rvob_out REPLACE
DRN              22 ..\..\model\model.SampleModelLgr\SampleModelLgr.drn OLD
RCH              24 ..\..\model\model.SampleModelLgr\SampleModelLgr.rch OLD
ZONE             15 ..\..\model\model.SampleModelLgr\SampleModelLgr.zon OLD
MULT             16 ..\..\model\model.SampleModelLgr\SampleModelLgr.mlt OLD
HOB              41 ..\..\model\model.SampleModelLgr\SampleModelLgr.ob_hob OLD
DATA             42 ..\..\output\output.SampleModelLgr\SampleModelLgr.hob_out REPLACE
PVAL             52 ..\..\model\model.SampleModelLgr\SampleModelLgr.pval OLD
