# Name File for MODFLOW created on 12/14/2015 by ModelMuse
LIST           1011 SampleModelLgr_Child_1.lst REPLACE
DATA(BINARY)   1009 SampleModelLgr_Child_1.cbc REPLACE
DIS            1012 SampleModelLgr_Child_1.dis OLD
BAS6           1013 SampleModelLgr_Child_1.bas OLD
OC             1039 SampleModelLgr_Child_1.oc OLD
DATA           1037 SampleModelLgr_Child_1.fhd REPLACE
DATA           1038 SampleModelLgr_Child_1.fdn REPLACE
PCG            1018 SampleModelLgr_Child_1.pcg OLD
LPF            1014 SampleModelLgr_Child_1.lpf OLD
RIV            1021 SampleModelLgr_Child_1.riv OLD
RVOB           1048 SampleModelLgr_Child_1.ob_rvob OLD
DATA           1049 SampleModelLgr_Child_1.rvob_out REPLACE
DRN            1022 SampleModelLgr_Child_1.drn OLD
RCH            1024 SampleModelLgr_Child_1.rch OLD
ZONE           1015 SampleModelLgr_Child_1.zon OLD
MULT           1016 SampleModelLgr_Child_1.mlt OLD
HOB            1041 SampleModelLgr_Child_1.ob_hob OLD
DATA           1042 SampleModelLgr_Child_1.hob_out REPLACE
PVAL           1052 SampleModelLgr_Child_1.pval OLD
