# Name File for MODFLOW created on 2/1/2017 by ModelMuse Version 3.8.1.27
LIST           1011 ..\..\output\output.SampleModelLgr_Child_1\SampleModelLgr_Child_1.lst REPLACE
DATA(BINARY)   1009 ..\..\output\output.SampleModelLgr_Child_1\SampleModelLgr_Child_1.cbc REPLACE
DIS            1012 ..\..\model\model.SampleModelLgr_Child_1\SampleModelLgr_Child_1.dis OLD
BAS6           1013 ..\..\model\model.SampleModelLgr_Child_1\SampleModelLgr_Child_1.bas OLD
OC             1039 ..\..\model\model.SampleModelLgr_Child_1\SampleModelLgr_Child_1.oc OLD
DATA           1037 ..\..\output\output.SampleModelLgr_Child_1\SampleModelLgr_Child_1.fhd REPLACE
DATA           1038 ..\..\output\output.SampleModelLgr_Child_1\SampleModelLgr_Child_1.fdn REPLACE
PCG            1018 ..\..\model\model.SampleModelLgr_Child_1\SampleModelLgr_Child_1.pcg OLD
LPF            1014 ..\..\model\model.SampleModelLgr_Child_1\SampleModelLgr_Child_1.lpf OLD
RIV            1021 ..\..\model\model.SampleModelLgr_Child_1\SampleModelLgr_Child_1.riv OLD
RVOB           1048 ..\..\model\model.SampleModelLgr_Child_1\SampleModelLgr_Child_1.ob_rvob OLD
DATA           1049 ..\..\output\output.SampleModelLgr_Child_1\SampleModelLgr_Child_1.rvob_out REPLACE
DRN            1022 ..\..\model\model.SampleModelLgr_Child_1\SampleModelLgr_Child_1.drn OLD
RCH            1024 ..\..\model\model.SampleModelLgr_Child_1\SampleModelLgr_Child_1.rch OLD
ZONE           1015 ..\..\model\model.SampleModelLgr_Child_1\SampleModelLgr_Child_1.zon OLD
MULT           1016 ..\..\model\model.SampleModelLgr_Child_1\SampleModelLgr_Child_1.mlt OLD
HOB            1041 ..\..\model\model.SampleModelLgr_Child_1\SampleModelLgr_Child_1.ob_hob OLD
DATA           1042 ..\..\output\output.SampleModelLgr_Child_1\SampleModelLgr_Child_1.hob_out REPLACE
PVAL           1052 ..\..\model\model.SampleModelLgr_Child_1\SampleModelLgr_Child_1.pval OLD
