# Name File for MODFLOW created on 12/14/2015 by ModelMuse
LIST             11 SampleModelLgr.lst REPLACE
DATA(BINARY)      9 SampleModelLgr.cbc REPLACE
DATA            131 SampleModelLgr.bfh_head REPLACE
DATA            132 SampleModelLgr.bfh_flux REPLACE
DIS              12 SampleModelLgr.dis OLD
BAS6             13 SampleModelLgr.bas OLD
OC               39 SampleModelLgr.oc OLD
DATA             37 SampleModelLgr.fhd REPLACE
DATA             38 SampleModelLgr.fdn REPLACE
PCG              18 SampleModelLgr.pcg OLD
LPF              14 SampleModelLgr.lpf OLD
RIV              21 SampleModelLgr.riv OLD
RVOB             48 SampleModelLgr.ob_rvob OLD
DATA             49 SampleModelLgr.rvob_out REPLACE
DRN              22 SampleModelLgr.drn OLD
RCH              24 SampleModelLgr.rch OLD
ZONE             15 SampleModelLgr.zon OLD
MULT             16 SampleModelLgr.mlt OLD
HOB              41 SampleModelLgr.ob_hob OLD
DATA             42 SampleModelLgr.hob_out REPLACE
PVAL             52 SampleModelLgr.pval OLD
