BEGIN DIMENSIONS
  NCELLS    300
END DIMENSIONS

BEGIN GRIDDATA
  IZONE
    INTERNAL FACTOR 1 IPRN      5
            1     1     1     1     1     0     0     0     0     0     1     1     1     1     1     0     0     0     0     0
            1     1     1     1     1     0     0     0     0     0     1     1     1     1     1     0     0     0     0     0
            1     1     1     1     1     0     0     0     0     0     1     0     0     0     0     0     0     0     0     0
            0     0     0     0     0     0     0     0     0     0     0     0     0     0     0     0     0     0     0     0
            0     0     0     0     0     0     0     0     0     0     0     0     0     0     0     0     0     0     0     0
            0     0     0     0     0     0     0     0     0     0     0     0     0     0     0     0     0     0     0     0
            0     0     0     0     0     0     0     0     0     0     0     0     0     0     0     0     0     0     0     0
            0     0     0     0     0     0     0     0     0     0     0     0     0     0     0     0     0     0     0     0
            0     0     0     0     0     0     0     0     0     0     0     0     0     0     0     0     0     0     0     0
            0     0     0     0     0     0     0     0     0     0     0     0     0     0     0     0     0     0     0     0
            0     0     0     0     0     0     0     0     0     0     0     0     0     0     0     0     0     0     0     0
            0     0     0     0     0     0     0     0     0     0     0     0     0     0     0     0     0     0     0     0
            0     0     0     0     0     0     0     0     0     0     0     0     0     0     0     0     0     0     0     0
            0     0     0     0     0     0     0     0     0     0     0     0     0     0     0     0     0     0     0     0
            0     0     0     0     0     0     0     0     0     0     0     0     0     0     0     0     0     0     0     0
END GRIDDATA

