BEGIN OPTIONS
  PRINT_INPUT
END OPTIONS

BEGIN TIMING
  TDIS6 'Sf6Mf6_CrossSection.tdis'
END TIMING

BEGIN MODELS
  GWF6 'Sf6Mf6_CrossSection.nam' 'MODFLOW'
END MODELS

BEGIN EXCHANGES
END EXCHANGES

BEGIN SOLUTIONGROUP     1
  MXITER     1
  IMS6 'Sf6Mf6_CrossSection.ims' 'MODFLOW' 
END SOLUTIONGROUP

