# Name File for MODFLOW created on 2/9/2024 by ModelMuse Version 5.1.1.54
BEGIN OPTIONS
  LIST ..\..\output\output.Sf6Mf6_CrossSection\Sf6Mf6_CrossSection.lst
  PRINT_INPUT
  SAVE_FLOWS
END OPTIONS

BEGIN PACKAGES
  DIS6         ..\..\model\model.Sf6Mf6_CrossSection\Sf6Mf6_CrossSection.dis  DIS
  IC6          ..\..\model\model.Sf6Mf6_CrossSection\Sf6Mf6_CrossSection.ic  IC
  NPF6         ..\..\model\model.Sf6Mf6_CrossSection\Sf6Mf6_CrossSection.npf  NPF
  STO6         ..\..\model\model.Sf6Mf6_CrossSection\Sf6Mf6_CrossSection.sto  STO
  OC6          ..\..\model\model.Sf6Mf6_CrossSection\Sf6Mf6_CrossSection.oc  OC
  CHD6         ..\..\model\model.Sf6Mf6_CrossSection\Sf6Mf6_CrossSection.chd  CHD-1
  SFR6         ..\..\model\model.Sf6Mf6_CrossSection\Sf6Mf6_CrossSection.sfr  SFR-1
END PACKAGES
