# Initial Conditions Package file created on 11/21/2023 by ModelMuse version 5.1.1.45.
BEGIN GRIDDATA
  STRT LAYERED IPRN    12
    CONSTANT   0.000000000000E+000  # STRT Upper Aquifer

    CONSTANT   0.000000000000E+000  # STRT Middle Aquifer

    CONSTANT   0.000000000000E+000  # STRT Lower Aquifer

END GRIDDATA

