# SFR: MODFLOW-6 Stream Flow Routing package file created on 2/4/2025 by ModelMuse version 5.3.1.7.
BEGIN OPTIONS
    PRINT_INPUT
    PRINT_STAGE
    PRINT_FLOWS
    BOUNDNAMES
    SAVE_FLOWS
    STAGE FILEOUT Sf6Mf6_CrossSection.stage
    BUDGET FILEOUT Sf6Mf6_CrossSection.sfr_budget
  PACKAGE_CONVERGENCE FILEOUT Sf6Mf6_CrossSection.SfrConvergence.CSV
    MAXIMUM_ITERATIONS   101
    MAXIMUM_DEPTH_CHANGE  1.000000000000E-006 
END OPTIONS

BEGIN DIMENSIONS
    NREACHES     28
END DIMENSIONS

BEGIN PACKAGEDATA
# <rno>   <cellid>        <rlen>                <rwid>                <rgrd>                <rtp>                 <rbth>                <rhk>                 <man>                <ncon> <ustrf>                  <ndv> [<aux(naux)>] [<boundname>]
# defined by Object0
     1     1     3     2  1.000000000000E+000   2.000000000000E+000   1.000000000000E-003   4.000000000000E+000   1.000000000000E+000   1.000000000000E-005   3.000000000000E-002      1  1.000000000000E+000      0 Object0
     2     1     3     3  1.000000000000E+000   2.000000000000E+000   1.000000000000E-003   4.000000000000E+000   1.000000000000E+000   1.000000000000E-005   3.000000000000E-002      2  1.000000000000E+000      0 Object0
     3     1     4     3  1.000000000000E+000   2.000000000000E+000   1.000000000000E-003   4.000000000000E+000   1.000000000000E+000   1.000000000000E-005   3.000000000000E-002      2  1.000000000000E+000      0 Object0
     4     1     4     4  1.000000000000E+000   2.000000000000E+000   1.000000000000E-003   4.000000000000E+000   1.000000000000E+000   1.000000000000E-005   3.000000000000E-002      2  1.000000000000E+000      0 Object0
     5     1     5     4  1.000000000000E+000   2.000000000000E+000   1.000000000000E-003   4.000000000000E+000   1.000000000000E+000   1.000000000000E-005   3.000000000000E-002      2  1.000000000000E+000      0 Object0
     6     1     5     5  1.000000000000E+000   2.000000000000E+000   1.000000000000E-003   4.000000000000E+000   1.000000000000E+000   1.000000000000E-005   3.000000000000E-002      2  1.000000000000E+000      0 Object0
     7     1     6     5  1.000000000000E+000   2.000000000000E+000   1.000000000000E-003   4.000000000000E+000   1.000000000000E+000   1.000000000000E-005   3.000000000000E-002      2  1.000000000000E+000      0 Object0
     8     1     7     5  1.000000000000E+000   2.000000000000E+000   1.000000000000E-003   4.000000000000E+000   1.000000000000E+000   1.000000000000E-005   3.000000000000E-002      2  1.000000000000E+000      0 Object0
     9     1     7     6  1.000000000000E+000   2.000000000000E+000   1.000000000000E-003   4.000000000000E+000   1.000000000000E+000   1.000000000000E-005   3.000000000000E-002      2  1.000000000000E+000      0 Object0
    10     1     8     6  1.000000000000E+000   2.000000000000E+000   1.000000000000E-003   4.000000000000E+000   1.000000000000E+000   1.000000000000E-005   3.000000000000E-002      2  1.000000000000E+000      0 Object0
    11     1     8     7  1.000000000000E+000   2.000000000000E+000   1.000000000000E-003   4.000000000000E+000   1.000000000000E+000   1.000000000000E-005   3.000000000000E-002      3  1.000000000000E+000      0 Object0
# defined by Object1
    12     1     6     8  2.000000000000E+000   2.000000000000E+000   1.000000000000E-003   3.000000000000E+000   1.000000000000E+000   1.000000000000E-005   3.000000000000E-002      2  1.000000000000E+000      0 Object1
    13     1     5     8  2.000000000000E+000   2.000000000000E+000   1.000000000000E-003   3.000000000000E+000   1.000000000000E+000   1.000000000000E-005   3.000000000000E-002      2  1.000000000000E+000      0 Object1
    14     1     4     8  2.000000000000E+000   2.000000000000E+000   1.000000000000E-003   3.000000000000E+000   1.000000000000E+000   1.000000000000E-005   3.000000000000E-002      2  1.000000000000E+000      0 Object1
    15     1     4     9  2.000000000000E+000   2.000000000000E+000   1.000000000000E-003   3.000000000000E+000   1.000000000000E+000   1.000000000000E-005   3.000000000000E-002      2  1.000000000000E+000      0 Object1
    16     1     3     9  2.000000000000E+000   2.000000000000E+000   1.000000000000E-003   3.000000000000E+000   1.000000000000E+000   1.000000000000E-005   3.000000000000E-002      2  1.000000000000E+000      0 Object1
    17     1     2     9  2.000000000000E+000   2.000000000000E+000   1.000000000000E-003   3.000000000000E+000   1.000000000000E+000   1.000000000000E-005   3.000000000000E-002      2  1.000000000000E+000      0 Object1
# defined by Object2
    18     1     8     9  3.000000000000E+000   2.000000000000E+000   1.000000000000E-003   3.000000000000E+000   1.000000000000E+000   1.000000000000E-005   3.000000000000E-002      2  0.000000000000E+000      0 Object2
    19     1     7     9  3.000000000000E+000   2.000000000000E+000   1.000000000000E-003   3.000000000000E+000   1.000000000000E+000   1.000000000000E-005   3.000000000000E-002      2  0.000000000000E+000      0 Object2
    20     1     6     9  3.000000000000E+000   2.000000000000E+000   1.000000000000E-003   3.000000000000E+000   1.000000000000E+000   1.000000000000E-005   3.000000000000E-002      2  0.000000000000E+000      0 Object2
    21     1     5     9  3.000000000000E+000   2.000000000000E+000   1.000000000000E-003   3.000000000000E+000   1.000000000000E+000   1.000000000000E-005   3.000000000000E-002      2  0.000000000000E+000      0 Object2
    22     1     5    10  3.000000000000E+000   2.000000000000E+000   1.000000000000E-003   3.000000000000E+000   1.000000000000E+000   1.000000000000E-005   3.000000000000E-002      2  0.000000000000E+000      0 Object2
    23     1     4    10  3.000000000000E+000   2.000000000000E+000   1.000000000000E-003   3.000000000000E+000   1.000000000000E+000   1.000000000000E-005   3.000000000000E-002      2  0.000000000000E+000      0 Object2
# defined by Object3
    24     1     1     9  4.000000000000E+000   2.000000000000E+000   1.000000000000E-003   1.000000000000E+000   1.000000000000E+000   1.000000000000E-005   3.000000000000E-002      3  1.000000000000E+000      0 Object3
    25     1     1     8  4.000000000000E+000   2.000000000000E+000   1.000000000000E-003   1.000000000000E+000   1.000000000000E+000   1.000000000000E-005   3.000000000000E-002      2  1.000000000000E+000      0 Object3
    26     1     1     7  4.000000000000E+000   2.000000000000E+000   1.000000000000E-003   1.000000000000E+000   1.000000000000E+000   1.000000000000E-005   3.000000000000E-002      2  1.000000000000E+000      0 Object3
    27     1     1     6  4.000000000000E+000   2.000000000000E+000   1.000000000000E-003   1.000000000000E+000   1.000000000000E+000   1.000000000000E-005   3.000000000000E-002      2  1.000000000000E+000      0 Object3
    28     1     1     5  4.000000000000E+000   2.000000000000E+000   1.000000000000E-003   1.000000000000E+000   1.000000000000E+000   1.000000000000E-005   3.000000000000E-002      1  1.000000000000E+000      0 Object3
END PACKAGEDATA

BEGIN CROSSSECTIONS
    12 TAB6 FILEIN Sf6Mf6_CrossSection.xsec1
    13 TAB6 FILEIN Sf6Mf6_CrossSection.xsec1
    14 TAB6 FILEIN Sf6Mf6_CrossSection.xsec1
    15 TAB6 FILEIN Sf6Mf6_CrossSection.xsec1
    16 TAB6 FILEIN Sf6Mf6_CrossSection.xsec1
    17 TAB6 FILEIN Sf6Mf6_CrossSection.xsec1
    24 TAB6 FILEIN Sf6Mf6_CrossSection.xsec2
    25 TAB6 FILEIN Sf6Mf6_CrossSection.xsec2
    26 TAB6 FILEIN Sf6Mf6_CrossSection.xsec2
    27 TAB6 FILEIN Sf6Mf6_CrossSection.xsec2
    28 TAB6 FILEIN Sf6Mf6_CrossSection.xsec2
END CROSSSECTIONS

BEGIN CONNECTIONDATA
# defined by Object0
     1    -2
     2     1    -3
     3     2    -4
     4     3    -5
     5     4    -6
     6     5    -7
     7     6    -8
     8     7    -9
     9     8   -10
    10     9   -11
    11    10   -12   -18
# defined by Object1
    12   -13    11
    13    12   -14
    14    13   -15
    15    14   -16
    16    15   -17
    17    16   -24
# defined by Object2
    18   -19    11
    19    18   -20
    20    19   -21
    21    20   -22
    22    21   -23
    23    22   -24
# defined by Object3
    24   -25    17    23
    25    24   -26
    26    25   -27
    27    26   -28
    28    27
END CONNECTIONDATA

BEGIN INITIALSTAGES
# <rno>  <initialstage>
# defined by Object0
     1  0.000000000000E+000 
     2  0.000000000000E+000 
     3  0.000000000000E+000 
     4  0.000000000000E+000 
     5  0.000000000000E+000 
     6  0.000000000000E+000 
     7  0.000000000000E+000 
     8  0.000000000000E+000 
     9  0.000000000000E+000 
    10  0.000000000000E+000 
    11  0.000000000000E+000 
# defined by Object1
    12  0.000000000000E+000 
    13  0.000000000000E+000 
    14  0.000000000000E+000 
    15  0.000000000000E+000 
    16  0.000000000000E+000 
    17  0.000000000000E+000 
# defined by Object2
    18  0.000000000000E+000 
    19  0.000000000000E+000 
    20  0.000000000000E+000 
    21  0.000000000000E+000 
    22  0.000000000000E+000 
    23  0.000000000000E+000 
# defined by Object3
    24  0.000000000000E+000 
    25  0.000000000000E+000 
    26  0.000000000000E+000 
    27  0.000000000000E+000 
    28  0.000000000000E+000 
END INITIALSTAGES

BEGIN PERIOD      1
# rno sfrsetting (defined by Object0)
     1 STATUS ACTIVE
     1 UPSTREAM_FRACTION  1.000000000000E+000 
     1 INFLOW  1.000000000000E+000 
     1 RAINFALL  2.000000000000E+000 
     1 EVAPORATION  3.000000000000E+000 
     1 RUNOFF  4.000000000000E+000 
     1 MANNING  3.000000000000E-002 

     2 STATUS ACTIVE
     2 UPSTREAM_FRACTION  1.000000000000E+000 
     2 INFLOW  0.000000000000E+000 
     2 RAINFALL  2.000000000000E+000 
     2 EVAPORATION  3.000000000000E+000 
     2 RUNOFF  4.000000000000E+000 
     2 MANNING  3.000000000000E-002 

     3 STATUS ACTIVE
     3 UPSTREAM_FRACTION  1.000000000000E+000 
     3 INFLOW  0.000000000000E+000 
     3 RAINFALL  2.000000000000E+000 
     3 EVAPORATION  3.000000000000E+000 
     3 RUNOFF  4.000000000000E+000 
     3 MANNING  3.000000000000E-002 

     4 STATUS ACTIVE
     4 UPSTREAM_FRACTION  1.000000000000E+000 
     4 INFLOW  0.000000000000E+000 
     4 RAINFALL  2.000000000000E+000 
     4 EVAPORATION  3.000000000000E+000 
     4 RUNOFF  4.000000000000E+000 
     4 MANNING  3.000000000000E-002 

     5 STATUS ACTIVE
     5 UPSTREAM_FRACTION  1.000000000000E+000 
     5 INFLOW  0.000000000000E+000 
     5 RAINFALL  2.000000000000E+000 
     5 EVAPORATION  3.000000000000E+000 
     5 RUNOFF  4.000000000000E+000 
     5 MANNING  3.000000000000E-002 

     6 STATUS ACTIVE
     6 UPSTREAM_FRACTION  1.000000000000E+000 
     6 INFLOW  0.000000000000E+000 
     6 RAINFALL  2.000000000000E+000 
     6 EVAPORATION  3.000000000000E+000 
     6 RUNOFF  4.000000000000E+000 
     6 MANNING  3.000000000000E-002 

     7 STATUS ACTIVE
     7 UPSTREAM_FRACTION  1.000000000000E+000 
     7 INFLOW  0.000000000000E+000 
     7 RAINFALL  2.000000000000E+000 
     7 EVAPORATION  3.000000000000E+000 
     7 RUNOFF  4.000000000000E+000 
     7 MANNING  3.000000000000E-002 

     8 STATUS ACTIVE
     8 UPSTREAM_FRACTION  1.000000000000E+000 
     8 INFLOW  0.000000000000E+000 
     8 RAINFALL  2.000000000000E+000 
     8 EVAPORATION  3.000000000000E+000 
     8 RUNOFF  4.000000000000E+000 
     8 MANNING  3.000000000000E-002 

     9 STATUS ACTIVE
     9 UPSTREAM_FRACTION  1.000000000000E+000 
     9 INFLOW  0.000000000000E+000 
     9 RAINFALL  2.000000000000E+000 
     9 EVAPORATION  3.000000000000E+000 
     9 RUNOFF  4.000000000000E+000 
     9 MANNING  3.000000000000E-002 

    10 STATUS ACTIVE
    10 UPSTREAM_FRACTION  1.000000000000E+000 
    10 INFLOW  0.000000000000E+000 
    10 RAINFALL  2.000000000000E+000 
    10 EVAPORATION  3.000000000000E+000 
    10 RUNOFF  4.000000000000E+000 
    10 MANNING  3.000000000000E-002 

    11 STATUS ACTIVE
    11 UPSTREAM_FRACTION  1.000000000000E+000 
    11 INFLOW  0.000000000000E+000 
    11 RAINFALL  2.000000000000E+000 
    11 EVAPORATION  3.000000000000E+000 
    11 RUNOFF  4.000000000000E+000 
    11 MANNING  3.000000000000E-002 

# rno sfrsetting (defined by Object1)
    12 STATUS ACTIVE
    12 UPSTREAM_FRACTION  1.000000000000E+000 
    12 INFLOW  2.000000000000E+000 
    12 RAINFALL  3.000000000000E+000 
    12 EVAPORATION  4.000000000000E+000 
    12 RUNOFF  5.000000000000E+000 
    12 MANNING  3.000000000000E-002 

    13 STATUS ACTIVE
    13 UPSTREAM_FRACTION  1.000000000000E+000 
    13 INFLOW  0.000000000000E+000 
    13 RAINFALL  3.000000000000E+000 
    13 EVAPORATION  4.000000000000E+000 
    13 RUNOFF  5.000000000000E+000 
    13 MANNING  3.000000000000E-002 

    14 STATUS ACTIVE
    14 UPSTREAM_FRACTION  1.000000000000E+000 
    14 INFLOW  0.000000000000E+000 
    14 RAINFALL  3.000000000000E+000 
    14 EVAPORATION  4.000000000000E+000 
    14 RUNOFF  5.000000000000E+000 
    14 MANNING  3.000000000000E-002 

    15 STATUS ACTIVE
    15 UPSTREAM_FRACTION  1.000000000000E+000 
    15 INFLOW  0.000000000000E+000 
    15 RAINFALL  3.000000000000E+000 
    15 EVAPORATION  4.000000000000E+000 
    15 RUNOFF  5.000000000000E+000 
    15 MANNING  3.000000000000E-002 

    16 STATUS ACTIVE
    16 UPSTREAM_FRACTION  1.000000000000E+000 
    16 INFLOW  0.000000000000E+000 
    16 RAINFALL  3.000000000000E+000 
    16 EVAPORATION  4.000000000000E+000 
    16 RUNOFF  5.000000000000E+000 
    16 MANNING  3.000000000000E-002 

    17 STATUS ACTIVE
    17 UPSTREAM_FRACTION  1.000000000000E+000 
    17 INFLOW  0.000000000000E+000 
    17 RAINFALL  3.000000000000E+000 
    17 EVAPORATION  4.000000000000E+000 
    17 RUNOFF  5.000000000000E+000 
    17 MANNING  3.000000000000E-002 

# rno sfrsetting (defined by Object2)
    18 STATUS INACTIVE
    18 UPSTREAM_FRACTION  0.000000000000E+000 

    19 STATUS INACTIVE
    19 UPSTREAM_FRACTION  1.000000000000E+000 

    20 STATUS INACTIVE
    20 UPSTREAM_FRACTION  1.000000000000E+000 

    21 STATUS INACTIVE
    21 UPSTREAM_FRACTION  1.000000000000E+000 

    22 STATUS INACTIVE
    22 UPSTREAM_FRACTION  1.000000000000E+000 

    23 STATUS INACTIVE
    23 UPSTREAM_FRACTION  1.000000000000E+000 

# rno sfrsetting (defined by Object3)
    24 STATUS ACTIVE
    24 UPSTREAM_FRACTION  1.000000000000E+000 
    24 INFLOW  4.000000000000E+000 
    24 RAINFALL  5.000000000000E+000 
    24 EVAPORATION  6.000000000000E+000 
    24 RUNOFF  7.000000000000E+000 
    24 MANNING  3.000000000000E-002 

    25 STATUS ACTIVE
    25 UPSTREAM_FRACTION  1.000000000000E+000 
    25 INFLOW  0.000000000000E+000 
    25 RAINFALL  5.000000000000E+000 
    25 EVAPORATION  6.000000000000E+000 
    25 RUNOFF  7.000000000000E+000 
    25 MANNING  3.000000000000E-002 

    26 STATUS ACTIVE
    26 UPSTREAM_FRACTION  1.000000000000E+000 
    26 INFLOW  0.000000000000E+000 
    26 RAINFALL  5.000000000000E+000 
    26 EVAPORATION  6.000000000000E+000 
    26 RUNOFF  7.000000000000E+000 
    26 MANNING  3.000000000000E-002 

    27 STATUS ACTIVE
    27 UPSTREAM_FRACTION  1.000000000000E+000 
    27 INFLOW  0.000000000000E+000 
    27 RAINFALL  5.000000000000E+000 
    27 EVAPORATION  6.000000000000E+000 
    27 RUNOFF  7.000000000000E+000 
    27 MANNING  3.000000000000E-002 

    28 STATUS ACTIVE
    28 UPSTREAM_FRACTION  1.000000000000E+000 
    28 INFLOW  0.000000000000E+000 
    28 RAINFALL  5.000000000000E+000 
    28 EVAPORATION  6.000000000000E+000 
    28 RUNOFF  7.000000000000E+000 
    28 MANNING  3.000000000000E-002 

END PERIOD 

BEGIN PERIOD      2
# rno sfrsetting (defined by Object0)
     1 STATUS ACTIVE
     1 UPSTREAM_FRACTION  1.000000000000E+000 
     1 INFLOW  1.000000000000E+000 
     1 RAINFALL  2.000000000000E+000 
     1 EVAPORATION  3.000000000000E+000 
     1 RUNOFF  4.000000000000E+000 
     1 MANNING  3.000000000000E-002 

     2 STATUS ACTIVE
     2 UPSTREAM_FRACTION  1.000000000000E+000 
     2 INFLOW  0.000000000000E+000 
     2 RAINFALL  2.000000000000E+000 
     2 EVAPORATION  3.000000000000E+000 
     2 RUNOFF  4.000000000000E+000 
     2 MANNING  3.000000000000E-002 

     3 STATUS ACTIVE
     3 UPSTREAM_FRACTION  1.000000000000E+000 
     3 INFLOW  0.000000000000E+000 
     3 RAINFALL  2.000000000000E+000 
     3 EVAPORATION  3.000000000000E+000 
     3 RUNOFF  4.000000000000E+000 
     3 MANNING  3.000000000000E-002 

     4 STATUS ACTIVE
     4 UPSTREAM_FRACTION  1.000000000000E+000 
     4 INFLOW  0.000000000000E+000 
     4 RAINFALL  2.000000000000E+000 
     4 EVAPORATION  3.000000000000E+000 
     4 RUNOFF  4.000000000000E+000 
     4 MANNING  3.000000000000E-002 

     5 STATUS ACTIVE
     5 UPSTREAM_FRACTION  1.000000000000E+000 
     5 INFLOW  0.000000000000E+000 
     5 RAINFALL  2.000000000000E+000 
     5 EVAPORATION  3.000000000000E+000 
     5 RUNOFF  4.000000000000E+000 
     5 MANNING  3.000000000000E-002 

     6 STATUS ACTIVE
     6 UPSTREAM_FRACTION  1.000000000000E+000 
     6 INFLOW  0.000000000000E+000 
     6 RAINFALL  2.000000000000E+000 
     6 EVAPORATION  3.000000000000E+000 
     6 RUNOFF  4.000000000000E+000 
     6 MANNING  3.000000000000E-002 

     7 STATUS ACTIVE
     7 UPSTREAM_FRACTION  1.000000000000E+000 
     7 INFLOW  0.000000000000E+000 
     7 RAINFALL  2.000000000000E+000 
     7 EVAPORATION  3.000000000000E+000 
     7 RUNOFF  4.000000000000E+000 
     7 MANNING  3.000000000000E-002 

     8 STATUS ACTIVE
     8 UPSTREAM_FRACTION  1.000000000000E+000 
     8 INFLOW  0.000000000000E+000 
     8 RAINFALL  2.000000000000E+000 
     8 EVAPORATION  3.000000000000E+000 
     8 RUNOFF  4.000000000000E+000 
     8 MANNING  3.000000000000E-002 

     9 STATUS ACTIVE
     9 UPSTREAM_FRACTION  1.000000000000E+000 
     9 INFLOW  0.000000000000E+000 
     9 RAINFALL  2.000000000000E+000 
     9 EVAPORATION  3.000000000000E+000 
     9 RUNOFF  4.000000000000E+000 
     9 MANNING  3.000000000000E-002 

    10 STATUS ACTIVE
    10 UPSTREAM_FRACTION  1.000000000000E+000 
    10 INFLOW  0.000000000000E+000 
    10 RAINFALL  2.000000000000E+000 
    10 EVAPORATION  3.000000000000E+000 
    10 RUNOFF  4.000000000000E+000 
    10 MANNING  3.000000000000E-002 

    11 STATUS ACTIVE
    11 UPSTREAM_FRACTION  1.000000000000E+000 
    11 INFLOW  0.000000000000E+000 
    11 RAINFALL  2.000000000000E+000 
    11 EVAPORATION  3.000000000000E+000 
    11 RUNOFF  4.000000000000E+000 
    11 MANNING  3.000000000000E-002 

# rno sfrsetting (defined by Object1)
    12 STATUS ACTIVE
    12 UPSTREAM_FRACTION  5.000000000000E-001 
    12 INFLOW  2.000000000000E+000 
    12 RAINFALL  3.000000000000E+000 
    12 EVAPORATION  4.000000000000E+000 
    12 RUNOFF  5.000000000000E+000 
    12 MANNING  3.000000000000E-002 

    13 STATUS ACTIVE
    13 UPSTREAM_FRACTION  1.000000000000E+000 
    13 INFLOW  0.000000000000E+000 
    13 RAINFALL  3.000000000000E+000 
    13 EVAPORATION  4.000000000000E+000 
    13 RUNOFF  5.000000000000E+000 
    13 MANNING  3.000000000000E-002 

    14 STATUS ACTIVE
    14 UPSTREAM_FRACTION  1.000000000000E+000 
    14 INFLOW  0.000000000000E+000 
    14 RAINFALL  3.000000000000E+000 
    14 EVAPORATION  4.000000000000E+000 
    14 RUNOFF  5.000000000000E+000 
    14 MANNING  3.000000000000E-002 

    15 STATUS ACTIVE
    15 UPSTREAM_FRACTION  1.000000000000E+000 
    15 INFLOW  0.000000000000E+000 
    15 RAINFALL  3.000000000000E+000 
    15 EVAPORATION  4.000000000000E+000 
    15 RUNOFF  5.000000000000E+000 
    15 MANNING  3.000000000000E-002 

    16 STATUS ACTIVE
    16 UPSTREAM_FRACTION  1.000000000000E+000 
    16 INFLOW  0.000000000000E+000 
    16 RAINFALL  3.000000000000E+000 
    16 EVAPORATION  4.000000000000E+000 
    16 RUNOFF  5.000000000000E+000 
    16 MANNING  3.000000000000E-002 

    17 STATUS ACTIVE
    17 UPSTREAM_FRACTION  1.000000000000E+000 
    17 INFLOW  0.000000000000E+000 
    17 RAINFALL  3.000000000000E+000 
    17 EVAPORATION  4.000000000000E+000 
    17 RUNOFF  5.000000000000E+000 
    17 MANNING  3.000000000000E-002 

# rno sfrsetting (defined by Object2)
    18 STATUS ACTIVE
    18 UPSTREAM_FRACTION  5.000000000000E-001 
    18 INFLOW  3.000000000000E+000 
    18 RAINFALL  4.000000000000E+000 
    18 EVAPORATION  5.000000000000E+000 
    18 RUNOFF  6.000000000000E+000 
    18 MANNING  3.000000000000E-002 

    19 STATUS ACTIVE
    19 UPSTREAM_FRACTION  1.000000000000E+000 
    19 INFLOW  0.000000000000E+000 
    19 RAINFALL  4.000000000000E+000 
    19 EVAPORATION  5.000000000000E+000 
    19 RUNOFF  6.000000000000E+000 
    19 MANNING  3.000000000000E-002 

    20 STATUS ACTIVE
    20 UPSTREAM_FRACTION  1.000000000000E+000 
    20 INFLOW  0.000000000000E+000 
    20 RAINFALL  4.000000000000E+000 
    20 EVAPORATION  5.000000000000E+000 
    20 RUNOFF  6.000000000000E+000 
    20 MANNING  3.000000000000E-002 

    21 STATUS ACTIVE
    21 UPSTREAM_FRACTION  1.000000000000E+000 
    21 INFLOW  0.000000000000E+000 
    21 RAINFALL  4.000000000000E+000 
    21 EVAPORATION  5.000000000000E+000 
    21 RUNOFF  6.000000000000E+000 
    21 MANNING  3.000000000000E-002 

    22 STATUS ACTIVE
    22 UPSTREAM_FRACTION  1.000000000000E+000 
    22 INFLOW  0.000000000000E+000 
    22 RAINFALL  4.000000000000E+000 
    22 EVAPORATION  5.000000000000E+000 
    22 RUNOFF  6.000000000000E+000 
    22 MANNING  3.000000000000E-002 

    23 STATUS ACTIVE
    23 UPSTREAM_FRACTION  1.000000000000E+000 
    23 INFLOW  0.000000000000E+000 
    23 RAINFALL  4.000000000000E+000 
    23 EVAPORATION  5.000000000000E+000 
    23 RUNOFF  6.000000000000E+000 
    23 MANNING  3.000000000000E-002 

# rno sfrsetting (defined by Object3)
    24 STATUS ACTIVE
    24 UPSTREAM_FRACTION  1.000000000000E+000 
    24 INFLOW  4.000000000000E+000 
    24 RAINFALL  5.000000000000E+000 
    24 EVAPORATION  6.000000000000E+000 
    24 RUNOFF  7.000000000000E+000 
    24 MANNING  3.000000000000E-002 
    24 CROSS_SECTION TAB6 FILEIN Sf6Mf6_CrossSection.xsec3

    25 STATUS ACTIVE
    25 UPSTREAM_FRACTION  1.000000000000E+000 
    25 INFLOW  0.000000000000E+000 
    25 RAINFALL  5.000000000000E+000 
    25 EVAPORATION  6.000000000000E+000 
    25 RUNOFF  7.000000000000E+000 
    25 MANNING  3.000000000000E-002 
    25 CROSS_SECTION TAB6 FILEIN Sf6Mf6_CrossSection.xsec3

    26 STATUS ACTIVE
    26 UPSTREAM_FRACTION  1.000000000000E+000 
    26 INFLOW  0.000000000000E+000 
    26 RAINFALL  5.000000000000E+000 
    26 EVAPORATION  6.000000000000E+000 
    26 RUNOFF  7.000000000000E+000 
    26 MANNING  3.000000000000E-002 
    26 CROSS_SECTION TAB6 FILEIN Sf6Mf6_CrossSection.xsec3

    27 STATUS ACTIVE
    27 UPSTREAM_FRACTION  1.000000000000E+000 
    27 INFLOW  0.000000000000E+000 
    27 RAINFALL  5.000000000000E+000 
    27 EVAPORATION  6.000000000000E+000 
    27 RUNOFF  7.000000000000E+000 
    27 MANNING  3.000000000000E-002 
    27 CROSS_SECTION TAB6 FILEIN Sf6Mf6_CrossSection.xsec3

    28 STATUS ACTIVE
    28 UPSTREAM_FRACTION  1.000000000000E+000 
    28 INFLOW  0.000000000000E+000 
    28 RAINFALL  5.000000000000E+000 
    28 EVAPORATION  6.000000000000E+000 
    28 RUNOFF  7.000000000000E+000 
    28 MANNING  3.000000000000E-002 
    28 CROSS_SECTION TAB6 FILEIN Sf6Mf6_CrossSection.xsec3

END PERIOD 

