BEGIN TIMING
  TDIS6 'Sf6Mf6.tdis'
END TIMING

BEGIN MODELS
  GWF6 'Sf6Mf6.nam' 'MODFLOW'
END MODELS

BEGIN EXCHANGES
END EXCHANGES

BEGIN SOLUTIONGROUP     1
  MXITER     1
  IMS6 'Sf6Mf6.ims' 'MODFLOW' 
END SOLUTIONGROUP

