BEGIN DIMENSIONS
  NROW     6
  NCOL     3
END DIMENSIONS

BEGIN TABLE
  0.000000000000E+000   5.000000000000E+000   1.000000000000E+000 
  1.000000000000E-001   3.000000000000E+000   3.000000000000E-001 
  2.000000000000E-001   0.000000000000E+000   3.000000000000E-001 
  5.000000000000E-001   0.000000000000E+000   3.000000000000E-001 
  7.000000000000E-001   3.000000000000E+000   1.000000000000E+000 
  1.000000000000E+000   5.000000000000E+000   1.000000000000E+000 
END TABLE
