# IMS: Iterative Model Solution file created on 2/9/2024 by ModelMuse version 5.1.1.54.
BEGIN OPTIONS
  PRINT_OPTION ALL
  COMPLEXITY MODERATE
  CSV_OUTER_OUTPUT FILEOUT Sf6Mf6_CrossSection.OuterSolution.CSV
  CSV_INNER_OUTPUT FILEOUT Sf6Mf6_CrossSection.InnerSolution.CSV
  ATS_OUTER_MAXIMUM_FRACTION  3.333333333333E-001 
END OPTIONS

BEGIN NONLINEAR
  OUTER_DVCLOSE   1.000000000000E-002 
  OUTER_MAXIMUM   1000
  UNDER_RELAXATION NONE
  BACKTRACKING_NUMBER     0
END NONLINEAR

BEGIN LINEAR
  INNER_MAXIMUM   100
  INNER_DVCLOSE  1.000000000000E-003 
  INNER_RCLOSE  1.000000000000E-001 
  LINEAR_ACCELERATION BICGSTAB
END LINEAR

