# Output Control file created on 7/22/2019 by ModelMuse version 4.0.0.6.
BEGIN OPTIONS
  BUDGET FILEOUT 'Sf6Mf6.cbc'
  HEAD FILEOUT 'Sf6Mf6.bhd'
END OPTIONS

BEGIN PERIOD      1
  SAVE HEAD ALL
  PRINT BUDGET ALL
  SAVE BUDGET ALL
END PERIOD 

BEGIN PERIOD      2
  SAVE HEAD ALL
  PRINT BUDGET ALL
  SAVE BUDGET ALL
END PERIOD 

