# Output Control file created on 2/9/2024 by ModelMuse version 5.1.1.54.
BEGIN OPTIONS
  BUDGET FILEOUT 'Sf6Mf6_CrossSection.cbc'
  HEAD FILEOUT 'Sf6Mf6_CrossSection.bhd'
END OPTIONS

BEGIN PERIOD      1
  SAVE HEAD ALL
  PRINT BUDGET ALL
  SAVE BUDGET ALL
END PERIOD 

BEGIN PERIOD      2
  SAVE HEAD ALL
  PRINT BUDGET ALL
  SAVE BUDGET ALL
END PERIOD 

