BEGIN DIMENSIONS
  NROW     3
  NCOL     2
END DIMENSIONS

BEGIN TABLE
  0.000000000000E+000   5.000000000000E+000 
  5.000000000000E-001   0.000000000000E+000 
  1.000000000000E+000   5.000000000000E+000 
END TABLE
