BEGIN DIMENSIONS
  NROW     2
  NCOL     2
END DIMENSIONS

BEGIN TABLE
  0.000000000000E+000   1.000000000000E+000 
  1.000000000000E+000   0.000000000000E+000 
END TABLE
