# Name File for MODFLOW created on 12/3/2021 by ModelMuse Version 4.3.0.74
BEGIN OPTIONS
  LIST ..\..\output\output.Sf6Mf6\Sf6Mf6.lst
  PRINT_INPUT
  SAVE_FLOWS
END OPTIONS

BEGIN PACKAGES
  DIS6         ..\..\model\model.Sf6Mf6\Sf6Mf6.dis  DIS
  IC6          ..\..\model\model.Sf6Mf6\Sf6Mf6.ic  IC
  NPF6         ..\..\model\model.Sf6Mf6\Sf6Mf6.npf  NPF
  STO6         ..\..\model\model.Sf6Mf6\Sf6Mf6.sto  STO
  OC6          ..\..\model\model.Sf6Mf6\Sf6Mf6.oc  OC
  CHD6         ..\..\model\model.Sf6Mf6\Sf6Mf6.chd  CHD-1
  SFR6         ..\..\model\model.Sf6Mf6\Sf6Mf6.sfr  SFR-1
END PACKAGES
