# Name File for MODFLOW created on 1/5/2017 by ModelMuse Version 3.8.1.22
LIST             11 SfrLinkTest3.lst REPLACE
DATA(BINARY)      9 SfrLinkTest3.cbc REPLACE
DATA            131 SfrLinkTest3.bfh_head REPLACE
DATA            132 SfrLinkTest3.bfh_flux REPLACE
DIS              12 SfrLinkTest3.dis OLD
BAS6             13 SfrLinkTest3.bas OLD
OC               39 SfrLinkTest3.oc OLD
DATA             37 SfrLinkTest3.fhd REPLACE
DATA             38 SfrLinkTest3.fdn REPLACE
PCG              18 SfrLinkTest3.pcg OLD
LPF              14 SfrLinkTest3.lpf OLD
SFR              29 SfrLinkTest3.sfr OLD
