# Name File for MODFLOW created on 1/5/2017 by ModelMuse Version 3.8.1.22
LIST           1011 SfrLinkTest3_Child_1.lst REPLACE
DATA(BINARY)   1009 SfrLinkTest3_Child_1.cbc REPLACE
SFR            1029 SfrLinkTest3_Child_1.sfr OLD
DIS            1012 SfrLinkTest3_Child_1.dis OLD
BAS6           1013 SfrLinkTest3_Child_1.bas OLD
OC             1039 SfrLinkTest3_Child_1.oc OLD
DATA           1037 SfrLinkTest3_Child_1.fhd REPLACE
DATA           1038 SfrLinkTest3_Child_1.fdn REPLACE
PCG            1018 SfrLinkTest3_Child_1.pcg OLD
LPF            1014 SfrLinkTest3_Child_1.lpf OLD
