# Name File for MODFLOW created on 12/14/2015 by ModelMuse
LIST             11 SfrParam.lst REPLACE
DATA(BINARY)      9 SfrParam.cbc REPLACE
DIS              12 SfrParam.dis OLD
BAS6             13 SfrParam.bas OLD
OC               39 SfrParam.oc OLD
DATA             37 SfrParam.fhd REPLACE
DATA             38 SfrParam.fdn REPLACE
PCG              18 SfrParam.pcg OLD
LPF              14 SfrParam.lpf OLD
GHB              19 SfrParam.ghb OLD
SFR              29 SfrParam.sfr OLD
DATA          20205 SfrParam.tab1 OLD
DATA          20206 SfrParam.tab2 OLD
DATA          20207 SfrParam.sfrg1 REPLACE
DATA          20208 SfrParam.sfrg2 REPLACE
DATA          20209 SfrParam.sfrg3 REPLACE
DATA          20210 SfrParam.sfrg4 REPLACE
DATA          20211 SfrParam.sfrg5 REPLACE
DATA          20212 SfrParam.sfrg6 REPLACE
DATA          20213 SfrParam.sfrg7 REPLACE
DATA          20214 SfrParam.sfrg8 REPLACE
GAGE             40 SfrParam.gag OLD
PVAL             52 SfrParam.pval OLD
