# Name File for MODFLOW created on 2/1/2017 by ModelMuse Version 3.8.1.27
LIST             11 ..\..\output\output.SfrParam\SfrParam.lst REPLACE
DATA(BINARY)      9 ..\..\output\output.SfrParam\SfrParam.cbc REPLACE
DIS              12 ..\..\model\model.SfrParam\SfrParam.dis OLD
BAS6             13 ..\..\model\model.SfrParam\SfrParam.bas OLD
OC               39 ..\..\model\model.SfrParam\SfrParam.oc OLD
DATA             37 ..\..\output\output.SfrParam\SfrParam.fhd REPLACE
DATA             38 ..\..\output\output.SfrParam\SfrParam.fdn REPLACE
PCG              18 ..\..\model\model.SfrParam\SfrParam.pcg OLD
LPF              14 ..\..\model\model.SfrParam\SfrParam.lpf OLD
GHB              19 ..\..\model\model.SfrParam\SfrParam.ghb OLD
SFR              29 ..\..\model\model.SfrParam\SfrParam.sfr OLD
DATA          20205 ..\..\model\model.SfrParam\SfrParam.tab1 OLD
DATA          20206 ..\..\model\model.SfrParam\SfrParam.tab2 OLD
DATA          20207 ..\..\output\output.SfrParam\SfrParam.sfrg1 REPLACE
DATA          20208 ..\..\output\output.SfrParam\SfrParam.sfrg2 REPLACE
DATA          20209 ..\..\output\output.SfrParam\SfrParam.sfrg3 REPLACE
DATA          20210 ..\..\output\output.SfrParam\SfrParam.sfrg4 REPLACE
DATA          20211 ..\..\output\output.SfrParam\SfrParam.sfrg5 REPLACE
DATA          20212 ..\..\output\output.SfrParam\SfrParam.sfrg6 REPLACE
DATA          20213 ..\..\output\output.SfrParam\SfrParam.sfrg7 REPLACE
DATA          20214 ..\..\output\output.SfrParam\SfrParam.sfrg8 REPLACE
GAGE             40 ..\..\model\model.SfrParam\SfrParam.gag OLD
PVAL             52 ..\..\model\model.SfrParam\SfrParam.pval OLD
