# Name File for MODFLOW created on 12/14/2015 by ModelMuse
LIST             11 sfrtest3.lst REPLACE
DATA(BINARY)      9 sfrtest3.cbc REPLACE
DIS              12 sfrtest3.dis OLD
BAS6             13 sfrtest3.bas OLD
OC               39 sfrtest3.oc OLD
DATA             37 sfrtest3.fhd REPLACE
DATA             38 sfrtest3.fdn REPLACE
PCG              18 sfrtest3.pcg OLD
LPF              14 sfrtest3.lpf OLD
CHD              17 sfrtest3.chd OLD
SFR              29 sfrtest3.sfr OLD
PVAL             52 sfrtest3.pval OLD
