# Name File for MODFLOW created on 12/14/2015 by ModelMuse
LIST             11 sfrtest6.lst REPLACE
DATA(BINARY)      9 sfrtest6.cbc REPLACE
DIS              12 sfrtest6.dis OLD
BAS6             13 sfrtest6.bas OLD
OC               39 sfrtest6.oc OLD
DATA             37 sfrtest6.fhd REPLACE
DATA             38 sfrtest6.fdn REPLACE
PCG              18 sfrtest6.pcg OLD
LPF              14 sfrtest6.lpf OLD
SFR              29 sfrtest6.sfr OLD
