# Name File for MODFLOW created on 12/14/2015 by ModelMuse
LIST             11 sfrtest5.lst REPLACE
DATA(BINARY)      9 sfrtest5.cbc REPLACE
DIS              12 sfrtest5.dis OLD
BAS6             13 sfrtest5.bas OLD
OC               39 sfrtest5.oc OLD
DATA             37 sfrtest5.fhd REPLACE
DATA             38 sfrtest5.fdn REPLACE
PCG              18 sfrtest5.pcg OLD
LPF              14 sfrtest5.lpf OLD
CHD              17 sfrtest5.chd OLD
SFR              29 sfrtest5.sfr OLD
PVAL             52 sfrtest5.pval OLD
