# Name File for MODFLOW created on 2/1/2022 by ModelMuse Version 4.3.0.80
LIST             11 Sft2Comp.lst REPLACE
DATA(BINARY)      9 Sft2Comp.cbc REPLACE
DIS              12 Sft2Comp.dis OLD
BAS6             13 Sft2Comp.bas OLD
OC               39 Sft2Comp.oc OLD
DATA(BINARY)     37 Sft2Comp.bhd REPLACE
DATA             38 Sft2Comp.fdn REPLACE
PCG              18 Sft2Comp.pcg OLD
LPF              14 Sft2Comp.lpf OLD
LMT6            135 Sft2Comp.lmt OLD
SFR              29 Sft2Comp.sfr OLD
