# Transport name file for Chem file created on 10/3/2022 by ModelMuse version 5.0.0.28.
BEGIN OPTIONS
  LIST SftTimeSeries.Chem.lst
    PRINT_INPUT
    SAVE_FLOWS
END OPTIONS

BEGIN PACKAGES
  DIS6 SftTimeSeries.Chem.dis
  OC6 SftTimeSeries.Chem.oc
  SFT6 SftTimeSeries.Chem.sft
  LKT6 SftTimeSeries.Chem.lkt
  FMI6 SftTimeSeries.Chem.fmi
  MVT6 SftTimeSeries.Chem.mvt
  ADV6 SftTimeSeries.Chem.adv
  DSP6 SftTimeSeries.Chem.dsp
  SSM6 SftTimeSeries.Chem.ssm
  IC6 SftTimeSeries.Chem.ic
  MST6 SftTimeSeries.Chem.mst
  CNC6 SftTimeSeries.Chem.cnc
END PACKAGES
