# CNC: GWT Constant Concentration Package file created on 10/3/2022 by ModelMuse version 5.0.0.28.
BEGIN OPTIONS
    AUXILIARY IFACE
    BOUNDNAMES
    PRINT_INPUT
    SAVE_FLOWS
END OPTIONS

BEGIN DIMENSIONS
  MAXBOUND     8
END DIMENSIONS

BEGIN PERIOD      1
     1     1    12  5.000000000000E+002      0 'CNC'  # Stress periods: Layer Row Column Conc IFACE boundname
     2     1    12  5.000000000000E+002      0 'CNC'  # Stress periods: Layer Row Column Conc IFACE boundname
     1     1    13  5.000000000000E+002      0 'CNC'  # Stress periods: Layer Row Column Conc IFACE boundname
     2     1    13  5.000000000000E+002      0 'CNC'  # Stress periods: Layer Row Column Conc IFACE boundname
     1     1    14  5.000000000000E+002      0 'CNC'  # Stress periods: Layer Row Column Conc IFACE boundname
     2     1    14  5.000000000000E+002      0 'CNC'  # Stress periods: Layer Row Column Conc IFACE boundname
     1     1    15  5.000000000000E+002      0 'CNC'  # Stress periods: Layer Row Column Conc IFACE boundname
     2     1    15  5.000000000000E+002      0 'CNC'  # Stress periods: Layer Row Column Conc IFACE boundname
END PERIOD 

