# Name File for MODFLOW created on 10/3/2022 by ModelMuse Version 5.0.0.28
BEGIN OPTIONS
  LIST SftTimeSeries.lst
  PRINT_INPUT
  SAVE_FLOWS
END OPTIONS

BEGIN PACKAGES
  DIS6         SftTimeSeries.dis  DIS
  IC6          SftTimeSeries.ic  IC
  NPF6         SftTimeSeries.npf  NPF
  OC6          SftTimeSeries.oc  OC
  CHD6         SftTimeSeries.chd  CHD-1
  SFR6         SftTimeSeries.sfr  SFR-1
  RCH6         SftTimeSeries.rch  RCH-1
  LAK6         SftTimeSeries.lak6  LAK-1
  MVR6         SftTimeSeries.mvr  MVR-1
END PACKAGES
