# Discretization File created on 10/3/2022 by ModelMuse version 5.0.0.28.
# Upper left corner: (0, 0)
# Lower left corner: (0, -14533.812)
# Upper right corner: (9330.295, 0)
# Lower right corner: (9330.295, -14533.812)
# Grid angle (in degrees counterclockwise): 0
# Number of active cells = 5971.
BEGIN OPTIONS
  LENGTH_UNITS FEET
  XORIGIN  0.000000000000E+000 
  YORIGIN -1.453381200000E+004 
  ANGROT  0.000000000000E+000 
END OPTIONS

BEGIN DIMENSIONS
  NLAY      8
  NROW     36
  NCOL     23
END DIMENSIONS


BEGIN GRIDDATA
  DELR LAYERED
    INTERNAL IPRN     12 # DELR
        4.056650000000E+002   4.056650000000E+002   4.056650000000E+002   4.056650000000E+002   4.056650000000E+002   4.056650000000E+002   4.056650000000E+002   4.056650000000E+002   4.056650000000E+002   4.056650000000E+002 
        4.056650000000E+002   4.056650000000E+002   4.056650000000E+002   4.056650000000E+002   4.056650000000E+002   4.056650000000E+002   4.056650000000E+002   4.056650000000E+002   4.056650000000E+002   4.056650000000E+002 
        4.056650000000E+002   4.056650000000E+002   4.056650000000E+002 
  DELC LAYERED
    INTERNAL IPRN     12 # DELC
        4.037170000000E+002   4.037170000000E+002   4.037170000000E+002   4.037170000000E+002   4.037170000000E+002   4.037170000000E+002   4.037170000000E+002   4.037170000000E+002   4.037170000000E+002   4.037170000000E+002 
        4.037170000000E+002   4.037170000000E+002   4.037170000000E+002   4.037170000000E+002   4.037170000000E+002   4.037170000000E+002   4.037170000000E+002   4.037170000000E+002   4.037170000000E+002   4.037170000000E+002 
        4.037170000000E+002   4.037170000000E+002   4.037170000000E+002   4.037170000000E+002   4.037170000000E+002   4.037170000000E+002   4.037170000000E+002   4.037170000000E+002   4.037170000000E+002   4.037170000000E+002 
        4.037170000000E+002   4.037170000000E+002   4.037170000000E+002   4.037170000000E+002   4.037170000000E+002   4.037170000000E+002 
  TOP LAYERED IPRN    12
    CONSTANT   1.000000000000E+002  # TOP

  BOTM LAYERED
    INTERNAL IPRN     12 # BOTM, Layer1
        3.334707000000E+001   3.396223000000E+001   3.443859000000E+001   3.486017000000E+001   3.499027000000E+001   3.480608000000E+001   3.490436000000E+001   3.498863000000E+001   3.477058000000E+001   3.474183000000E+001 
        3.497304000000E+001   3.489779000000E+001   3.457696000000E+001   3.450538000000E+001   3.479751000000E+001   3.498536000000E+001   3.458713000000E+001   3.442056000000E+001   3.494514000000E+001   3.473759000000E+001 
        3.467215000000E+001   3.494077000000E+001   3.463989000000E+001 
        3.275133000000E+001   3.369716000000E+001   3.417713000000E+001   3.459410000000E+001   3.472033000000E+001   3.461828000000E+001   3.470295000000E+001   3.476375000000E+001   3.459791000000E+001   3.456149000000E+001 
        3.471222000000E+001   3.464343000000E+001   3.437279000000E+001   3.415080000000E+001   3.437614000000E+001   3.449003000000E+001   3.412191000000E+001   3.404263000000E+001   3.440146000000E+001   3.416639000000E+001 
        3.408224000000E+001   3.419166000000E+001   3.393896000000E+001 
        3.225763000000E+001   3.275566000000E+001   3.359999000000E+001   3.394608000000E+001   3.410060000000E+001   3.419247000000E+001   3.427281000000E+001   3.428142000000E+001   3.412533000000E+001   3.407158000000E+001 
        3.409289000000E+001   3.400967000000E+001   3.396358000000E+001   3.367846000000E+001   3.371398000000E+001   3.351997000000E+001   3.349549000000E+001   3.336049000000E+001   3.316927000000E+001   3.297661000000E+001 
        3.276025000000E+001   3.261858000000E+001   3.246337000000E+001 
        3.162912000000E+001   3.197909000000E+001   3.251310000000E+001   3.305341000000E+001   3.326409000000E+001   3.353504000000E+001   3.365749000000E+001   3.358127000000E+001   3.350942000000E+001   3.344083000000E+001 
        3.339838000000E+001   3.332825000000E+001   3.317526000000E+001   3.305861000000E+001   3.271687000000E+001   3.262728000000E+001   3.241132000000E+001   3.221214000000E+001   3.200966000000E+001   3.166526000000E+001 
        3.127454000000E+001   3.104104000000E+001   3.076956000000E+001 
        3.095930000000E+001   3.114175000000E+001   3.133884000000E+001   3.174814000000E+001   3.228294000000E+001   3.273977000000E+001   3.291689000000E+001   3.284066000000E+001   3.274922000000E+001   3.264922000000E+001 
        3.259395000000E+001   3.256808000000E+001   3.223318000000E+001   3.210137000000E+001   3.194701000000E+001   3.179538000000E+001   3.130180000000E+001   3.111405000000E+001   3.087908000000E+001   3.035243000000E+001 
        3.010274000000E+001   3.004617000000E+001   2.981510000000E+001 
        3.035912000000E+001   3.040791000000E+001   3.044146000000E+001   3.090915000000E+001   3.126405000000E+001   3.160373000000E+001   3.203640000000E+001   3.208052000000E+001   3.190693000000E+001   3.173585000000E+001 
        3.169891000000E+001   3.177370000000E+001   3.156088000000E+001   3.146200000000E+001   3.104266000000E+001   3.084940000000E+001   3.066541000000E+001   3.049949000000E+001   3.015960000000E+001   3.002072000000E+001 
        2.979670000000E+001   2.983705000000E+001   2.987598000000E+001 
        2.960798000000E+001   2.973910000000E+001   2.987786000000E+001   2.996001000000E+001   3.046720000000E+001   3.091235000000E+001   3.111988000000E+001   3.140622000000E+001   3.108085000000E+001   3.067609000000E+001 
        3.065575000000E+001   3.084846000000E+001   3.100697000000E+001   3.072307000000E+001   3.057027000000E+001   3.020175000000E+001   3.008806000000E+001   2.983966000000E+001   2.981214000000E+001   2.985417000000E+001 
        2.973167000000E+001   2.983982000000E+001   2.989064000000E+001 
        2.949525000000E+001   2.965400000000E+001   2.970131000000E+001   2.970817000000E+001   2.985818000000E+001   3.027061000000E+001   3.068245000000E+001   3.058897000000E+001   3.037623000000E+001   2.996988000000E+001 
        2.998578000000E+001   3.023742000000E+001   3.044130000000E+001   3.021641000000E+001   3.021729000000E+001   2.994687000000E+001   2.970000000000E+001   2.974128000000E+001   2.970000000000E+001   2.970000000000E+001 
        2.970000000000E+001   2.970000000000E+001   2.970000000000E+001 
        2.914460000000E+001   2.932761000000E+001   2.958849000000E+001   2.961653000000E+001   2.952098000000E+001   2.967909000000E+001   3.013648000000E+001   3.032303000000E+001   3.014969000000E+001   2.975963000000E+001 
        2.976481000000E+001   3.006365000000E+001   3.010396000000E+001   2.989016000000E+001   2.982277000000E+001   2.970000000000E+001   2.970000000000E+001   2.970000000000E+001   2.970000000000E+001   2.970000000000E+001 
        2.970000000000E+001   2.970000000000E+001   2.970000000000E+001 
        2.805605000000E+001   2.875081000000E+001   2.895383000000E+001   2.917648000000E+001   2.909495000000E+001   2.905017000000E+001   2.970411000000E+001   2.977194000000E+001   2.994323000000E+001   2.992371000000E+001 
        2.986247000000E+001   2.984868000000E+001   2.988270000000E+001   2.970000000000E+001   2.970000000000E+001   2.970000000000E+001   2.970000000000E+001   2.970000000000E+001   2.970000000000E+001   2.970000000000E+001 
        2.970000000000E+001   2.970000000000E+001   2.970000000000E+001 
        2.648497000000E+001   2.704921000000E+001   2.746248000000E+001   2.802036000000E+001   2.784806000000E+001   2.841560000000E+001   2.859143000000E+001   2.950481000000E+001   2.991873000000E+001   2.977177000000E+001 
        3.000219000000E+001   2.986919000000E+001   2.970000000000E+001   2.970000000000E+001   2.970000000000E+001   2.970000000000E+001   2.970000000000E+001   2.970000000000E+001   2.970000000000E+001   2.970000000000E+001 
        2.970000000000E+001   2.970000000000E+001   2.970000000000E+001 
        2.458254000000E+001   2.501879000000E+001   2.518905000000E+001   2.620109000000E+001   2.671451000000E+001   2.688698000000E+001   2.714997000000E+001   2.770956000000E+001   2.854341000000E+001   2.909773000000E+001 
        2.970000000000E+001   2.970000000000E+001   2.970000000000E+001   2.970000000000E+001   2.970000000000E+001   2.970000000000E+001   2.970000000000E+001   2.970000000000E+001   2.970000000000E+001   2.970000000000E+001 
        2.970000000000E+001   2.970000000000E+001   2.970000000000E+001 
        2.275108000000E+001   2.303183000000E+001   2.331217000000E+001   2.355771000000E+001   2.376405000000E+001   2.425329000000E+001   2.478199000000E+001   2.615136000000E+001   2.712946000000E+001   2.802421000000E+001 
        2.970000000000E+001   2.970000000000E+001   2.970000000000E+001   2.970000000000E+001   2.970000000000E+001   2.970000000000E+001   2.970000000000E+001   2.970000000000E+001   2.970000000000E+001   2.970000000000E+001 
        2.970000000000E+001   2.970000000000E+001   2.970000000000E+001 
        2.186225000000E+001   2.201448000000E+001   2.221569000000E+001   2.245024000000E+001   2.269574000000E+001   2.295530000000E+001   2.378423000000E+001   2.473898000000E+001   2.577802000000E+001   2.686196000000E+001 
        2.847788000000E+001   2.970000000000E+001   2.970000000000E+001   2.970000000000E+001   2.970000000000E+001   2.970000000000E+001   2.970000000000E+001   2.970000000000E+001   2.970000000000E+001   2.970000000000E+001 
        2.970000000000E+001   2.970000000000E+001   2.970000000000E+001 
        2.090865000000E+001   2.094450000000E+001   2.142159000000E+001   2.163431000000E+001   2.187545000000E+001   2.213364000000E+001   2.239964000000E+001   2.326950000000E+001   2.433176000000E+001   2.544293000000E+001 
        2.670019000000E+001   2.836718000000E+001   2.916050000000E+001   2.970000000000E+001   2.970000000000E+001   2.970000000000E+001   2.970000000000E+001   2.970000000000E+001   2.970000000000E+001   2.970000000000E+001 
        2.970000000000E+001   2.970000000000E+001   2.970000000000E+001 
        2.055946000000E+001   2.056268000000E+001   2.062739000000E+001   2.072309000000E+001   2.128952000000E+001   2.152148000000E+001   2.175356000000E+001   2.197391000000E+001   2.288067000000E+001   2.401558000000E+001 
        2.538499000000E+001   2.730865000000E+001   2.829508000000E+001   2.861368000000E+001   2.923183000000E+001   2.970000000000E+001   2.970000000000E+001   2.970000000000E+001   2.970000000000E+001   2.970000000000E+001 
        2.970000000000E+001   2.970000000000E+001   2.970000000000E+001 
        2.034465000000E+001   2.032780000000E+001   2.039870000000E+001   2.049293000000E+001   2.057943000000E+001   2.065180000000E+001   2.077127000000E+001   2.092081000000E+001   2.170264000000E+001   2.273104000000E+001 
        2.323864000000E+001   2.673158000000E+001   2.788891000000E+001   2.820666000000E+001   2.861378000000E+001   2.924028000000E+001   2.942056000000E+001   2.956547000000E+001   2.963360000000E+001   2.965668000000E+001 
        2.962591000000E+001   2.963475000000E+001   2.962303000000E+001 
        2.020000000000E+001   2.020000000000E+001   2.020000000000E+001   2.020000000000E+001   2.020000000000E+001   2.020000000000E+001   2.020000000000E+001   2.069275000000E+001   2.080599000000E+001   2.163382000000E+001 
        2.272902000000E+001   2.464039000000E+001   2.658701000000E+001   2.716059000000E+001   2.814555000000E+001   2.857011000000E+001   2.892372000000E+001   2.921032000000E+001   2.949554000000E+001   2.961177000000E+001 
        2.956707000000E+001   2.966167000000E+001   2.949791000000E+001 
        2.020000000000E+001   2.020000000000E+001   2.020000000000E+001   2.020000000000E+001   2.020000000000E+001   2.020000000000E+001   2.020000000000E+001   2.020000000000E+001   2.020000000000E+001   2.131399000000E+001 
        2.170003000000E+001   2.336096000000E+001   2.468642000000E+001   2.593872000000E+001   2.701394000000E+001   2.752439000000E+001   2.803845000000E+001   2.874415000000E+001   2.904657000000E+001   2.918067000000E+001 
        2.922141000000E+001   2.922273000000E+001   2.902298000000E+001 
        2.020000000000E+001   2.020000000000E+001   2.020000000000E+001   2.020000000000E+001   2.020000000000E+001   2.020000000000E+001   2.020000000000E+001   2.020000000000E+001   2.020000000000E+001   2.065907000000E+001 
        2.138103000000E+001   2.227727000000E+001   2.390320000000E+001   2.455712000000E+001   2.562660000000E+001   2.653173000000E+001   2.704636000000E+001   2.756961000000E+001   2.799134000000E+001   2.839213000000E+001 
        2.843477000000E+001   2.837862000000E+001   2.823025000000E+001 
        2.020000000000E+001   2.020000000000E+001   2.020000000000E+001   2.020000000000E+001   2.020000000000E+001   2.020000000000E+001   2.020000000000E+001   2.020000000000E+001   2.020000000000E+001   2.020000000000E+001 
        2.106686000000E+001   2.175914000000E+001   2.266785000000E+001   2.362954000000E+001   2.449022000000E+001   2.486574000000E+001   2.561526000000E+001   2.618266000000E+001   2.666759000000E+001   2.689802000000E+001 
        2.707442000000E+001   2.691519000000E+001   2.683581000000E+001 
        2.020000000000E+001   2.020000000000E+001   2.020000000000E+001   2.020000000000E+001   2.020000000000E+001   2.020000000000E+001   2.020000000000E+001   2.020000000000E+001   2.020000000000E+001   2.020000000000E+001 
        2.075143000000E+001   2.097365000000E+001   2.167653000000E+001   2.241681000000E+001   2.292575000000E+001   2.327066000000E+001   2.354752000000E+001   2.443893000000E+001   2.509199000000E+001   2.526299000000E+001 
        2.491548000000E+001   2.447344000000E+001   2.468929000000E+001 
        2.020000000000E+001   2.020000000000E+001   2.020000000000E+001   2.020000000000E+001   2.020000000000E+001   2.020000000000E+001   2.020000000000E+001   2.020000000000E+001   2.020000000000E+001   2.020000000000E+001 
        2.031845000000E+001   2.062664000000E+001   2.122703000000E+001   2.180555000000E+001   2.192770000000E+001   2.148822000000E+001   2.162145000000E+001   2.265564000000E+001   2.363203000000E+001   2.373006000000E+001 
        2.284223000000E+001   2.186355000000E+001   2.210613000000E+001 
        2.020000000000E+001   2.020000000000E+001   2.020000000000E+001   2.020000000000E+001   2.020000000000E+001   2.020000000000E+001   2.020000000000E+001   2.020000000000E+001   2.020000000000E+001   2.020000000000E+001 
        2.019079000000E+001   2.022231000000E+001   2.055008000000E+001   2.099369000000E+001   2.101184000000E+001   2.054477000000E+001   2.037628000000E+001   2.122906000000E+001   2.236863000000E+001   2.244541000000E+001 
        2.156945000000E+001   2.034531000000E+001   2.069992000000E+001 
        2.020000000000E+001   2.020000000000E+001   2.020000000000E+001   2.020000000000E+001   2.020000000000E+001   2.020000000000E+001   2.020000000000E+001   2.020000000000E+001   2.020000000000E+001   2.011626000000E+001 
        2.011883000000E+001   1.995887000000E+001   2.001943000000E+001   2.062421000000E+001   2.057812000000E+001   2.036559000000E+001   2.039380000000E+001   2.096470000000E+001   2.164537000000E+001   2.172627000000E+001 
        2.113243000000E+001   2.052773000000E+001   2.076020000000E+001 
        2.020000000000E+001   2.020000000000E+001   2.020000000000E+001   2.020000000000E+001   2.020000000000E+001   2.020000000000E+001   2.020000000000E+001   1.994899000000E+001   1.991899000000E+001   1.973893000000E+001 
        1.977765000000E+001   1.966836000000E+001   1.930157000000E+001   1.960158000000E+001   2.002809000000E+001   2.047184000000E+001   2.039246000000E+001   2.074231000000E+001   2.099847000000E+001   2.157873000000E+001 
        2.135161000000E+001   2.111114000000E+001   2.120408000000E+001 
        2.020000000000E+001   2.020000000000E+001   2.020000000000E+001   2.020000000000E+001   2.020000000000E+001   2.020000000000E+001   1.983297000000E+001   1.975254000000E+001   1.931251000000E+001   1.929059000000E+001 
        1.927605000000E+001   1.893645000000E+001   1.881960000000E+001   1.916253000000E+001   1.907719000000E+001   1.925382000000E+001   2.017135000000E+001   2.053214000000E+001   2.067765000000E+001   2.078793000000E+001 
        2.083464000000E+001   2.134987000000E+001   2.143791000000E+001 
        2.012548000000E+001   2.012310000000E+001   1.995720000000E+001   1.979170000000E+001   1.969400000000E+001   1.915373000000E+001   1.903618000000E+001   1.847670000000E+001   1.835148000000E+001   1.830426000000E+001 
        1.829614000000E+001   1.821076000000E+001   1.815856000000E+001   1.789639000000E+001   1.836697000000E+001   1.851129000000E+001   1.899648000000E+001   1.944375000000E+001   2.014173000000E+001   2.027208000000E+001 
        2.039428000000E+001   2.050729000000E+001   2.127505000000E+001 
        1.991424000000E+001   1.989793000000E+001   1.949126000000E+001   1.912849000000E+001   1.879508000000E+001   1.855027000000E+001   1.788529000000E+001   1.767316000000E+001   1.751375000000E+001   1.744337000000E+001 
        1.703301000000E+001   1.700368000000E+001   1.673346000000E+001   1.681801000000E+001   1.752737000000E+001   1.765655000000E+001   1.813391000000E+001   1.825829000000E+001   1.873543000000E+001   1.950808000000E+001 
        1.967284000000E+001   1.943860000000E+001   1.959895000000E+001 
        1.997411000000E+001   1.928858000000E+001   1.848948000000E+001   1.798698000000E+001   1.801610000000E+001   1.730274000000E+001   1.693857000000E+001   1.669595000000E+001   1.654533000000E+001   1.610526000000E+001 
        1.604583000000E+001   1.603564000000E+001   1.582167000000E+001   1.596090000000E+001   1.608946000000E+001   1.674992000000E+001   1.683823000000E+001   1.719094000000E+001   1.733873000000E+001   1.749816000000E+001 
        1.785587000000E+001   1.802970000000E+001   1.916379000000E+001 
        1.922854000000E+001   1.795234000000E+001   1.685778000000E+001   1.664508000000E+001   1.633855000000E+001   1.598855000000E+001   1.581139000000E+001   1.555770000000E+001   1.524302000000E+001   1.514453000000E+001 
        1.504686000000E+001   1.480884000000E+001   1.494299000000E+001   1.515757000000E+001   1.531129000000E+001   1.545894000000E+001   1.533585000000E+001   1.628315000000E+001   1.642149000000E+001   1.685484000000E+001 
        1.706505000000E+001   1.730580000000E+001   1.816091000000E+001 
        1.721610000000E+001   1.548250000000E+001   1.414090000000E+001   1.502902000000E+001   1.539449000000E+001   1.503579000000E+001   1.436980000000E+001   1.433292000000E+001   1.437433000000E+001   1.434689000000E+001 
        1.410708000000E+001   1.393675000000E+001   1.417686000000E+001   1.448867000000E+001   1.465392000000E+001   1.452713000000E+001   1.465209000000E+001   1.529026000000E+001   1.544212000000E+001   1.549093000000E+001 
        1.599614000000E+001   1.624548000000E+001   1.657993000000E+001 
        1.595278000000E+001   1.423729000000E+001   1.311963000000E+001   1.422253000000E+001   1.484002000000E+001   1.439723000000E+001   1.337087000000E+001   1.325317000000E+001   1.369234000000E+001   1.380613000000E+001 
        1.331418000000E+001   1.326209000000E+001   1.363515000000E+001   1.402320000000E+001   1.402401000000E+001   1.394351000000E+001   1.395635000000E+001   1.414885000000E+001   1.458916000000E+001   1.463266000000E+001 
        1.498396000000E+001   1.521147000000E+001   1.560230000000E+001 
        1.571623000000E+001   1.479154000000E+001   1.425866000000E+001   1.457861000000E+001   1.471607000000E+001   1.418491000000E+001   1.324475000000E+001   1.316196000000E+001   1.356900000000E+001   1.353319000000E+001 
        1.310795000000E+001   1.306035000000E+001   1.344156000000E+001   1.368396000000E+001   1.369868000000E+001   1.340227000000E+001   1.336541000000E+001   1.342792000000E+001   1.378131000000E+001   1.402383000000E+001 
        1.398969000000E+001   1.427038000000E+001   1.473061000000E+001 
        1.571728000000E+001   1.536111000000E+001   1.507428000000E+001   1.500678000000E+001   1.483856000000E+001   1.446602000000E+001   1.371175000000E+001   1.360415000000E+001   1.372819000000E+001   1.352898000000E+001 
        1.336874000000E+001   1.332888000000E+001   1.355312000000E+001   1.350804000000E+001   1.342524000000E+001   1.323889000000E+001   1.302142000000E+001   1.313938000000E+001   1.348967000000E+001   1.347522000000E+001 
        1.329981000000E+001   1.353869000000E+001   1.407730000000E+001 
        1.588491000000E+001   1.567686000000E+001   1.546919000000E+001   1.529282000000E+001   1.505378000000E+001   1.450813000000E+001   1.418960000000E+001   1.403473000000E+001   1.397554000000E+001   1.371378000000E+001 
        1.358909000000E+001   1.367990000000E+001   1.374759000000E+001   1.375473000000E+001   1.357384000000E+001   1.325794000000E+001   1.307078000000E+001   1.320407000000E+001   1.335277000000E+001   1.321480000000E+001 
        1.300752000000E+001   1.317114000000E+001   1.376003000000E+001 
    INTERNAL IPRN     12 # BOTM, Layer2
        1.834707000000E+001   1.896223000000E+001   1.943859000000E+001   1.986017000000E+001   1.999027000000E+001   1.980608000000E+001   1.990436000000E+001   1.998863000000E+001   1.977058000000E+001   1.974183000000E+001 
        1.997304000000E+001   1.989779000000E+001   1.957696000000E+001   1.950538000000E+001   1.979751000000E+001   1.998536000000E+001   1.958713000000E+001   1.942056000000E+001   1.994514000000E+001   1.973759000000E+001 
        1.967215000000E+001   1.994077000000E+001   1.963989000000E+001 
        1.775133000000E+001   1.869716000000E+001   1.917713000000E+001   1.959410000000E+001   1.972033000000E+001   1.961828000000E+001   1.970295000000E+001   1.976375000000E+001   1.959791000000E+001   1.956149000000E+001 
        1.971222000000E+001   1.964343000000E+001   1.937279000000E+001   1.915080000000E+001   1.937614000000E+001   1.949003000000E+001   1.912191000000E+001   1.904263000000E+001   1.940146000000E+001   1.916639000000E+001 
        1.908224000000E+001   1.919166000000E+001   1.893896000000E+001 
        1.725763000000E+001   1.775566000000E+001   1.859999000000E+001   1.894608000000E+001   1.910060000000E+001   1.919247000000E+001   1.927281000000E+001   1.928142000000E+001   1.912533000000E+001   1.907158000000E+001 
        1.909289000000E+001   1.900967000000E+001   1.896358000000E+001   1.867846000000E+001   1.871398000000E+001   1.851997000000E+001   1.849549000000E+001   1.836049000000E+001   1.816927000000E+001   1.797661000000E+001 
        1.776025000000E+001   1.761858000000E+001   1.746337000000E+001 
        1.662912000000E+001   1.697909000000E+001   1.751310000000E+001   1.805341000000E+001   1.826409000000E+001   1.853504000000E+001   1.865749000000E+001   1.858127000000E+001   1.850942000000E+001   1.844083000000E+001 
        1.839838000000E+001   1.832825000000E+001   1.817526000000E+001   1.805861000000E+001   1.771687000000E+001   1.762728000000E+001   1.741132000000E+001   1.721214000000E+001   1.700966000000E+001   1.666526000000E+001 
        1.627454000000E+001   1.604104000000E+001   1.576956000000E+001 
        1.595930000000E+001   1.614175000000E+001   1.633884000000E+001   1.674814000000E+001   1.728294000000E+001   1.773977000000E+001   1.791689000000E+001   1.784066000000E+001   1.774922000000E+001   1.764922000000E+001 
        1.759395000000E+001   1.756808000000E+001   1.723318000000E+001   1.710137000000E+001   1.694701000000E+001   1.679538000000E+001   1.630180000000E+001   1.611405000000E+001   1.587908000000E+001   1.535243000000E+001 
        1.510274000000E+001   1.504617000000E+001   1.481510000000E+001 
        1.535912000000E+001   1.540791000000E+001   1.544146000000E+001   1.590915000000E+001   1.626405000000E+001   1.660373000000E+001   1.703640000000E+001   1.708052000000E+001   1.690693000000E+001   1.673585000000E+001 
        1.669891000000E+001   1.677370000000E+001   1.656088000000E+001   1.646200000000E+001   1.604266000000E+001   1.584940000000E+001   1.566541000000E+001   1.549949000000E+001   1.515960000000E+001   1.502072000000E+001 
        1.479670000000E+001   1.483705000000E+001   1.487598000000E+001 
        1.460798000000E+001   1.473910000000E+001   1.487786000000E+001   1.496001000000E+001   1.546720000000E+001   1.591235000000E+001   1.611988000000E+001   1.640622000000E+001   1.608085000000E+001   1.567609000000E+001 
        1.565575000000E+001   1.584846000000E+001   1.600697000000E+001   1.572307000000E+001   1.557027000000E+001   1.520175000000E+001   1.508806000000E+001   1.483966000000E+001   1.481214000000E+001   1.485417000000E+001 
        1.473167000000E+001   1.483982000000E+001   1.489064000000E+001 
        1.449525000000E+001   1.465400000000E+001   1.470131000000E+001   1.470817000000E+001   1.485818000000E+001   1.527061000000E+001   1.568245000000E+001   1.558897000000E+001   1.537623000000E+001   1.496988000000E+001 
        1.498578000000E+001   1.523742000000E+001   1.544130000000E+001   1.521641000000E+001   1.521729000000E+001   1.494687000000E+001   1.470000000000E+001   1.474128000000E+001   1.470000000000E+001   1.470000000000E+001 
        1.470000000000E+001   1.470000000000E+001   1.470000000000E+001 
        1.414460000000E+001   1.432761000000E+001   1.458849000000E+001   1.461653000000E+001   1.452098000000E+001   1.467909000000E+001   1.513648000000E+001   1.532303000000E+001   1.514969000000E+001   1.475963000000E+001 
        1.476481000000E+001   1.506365000000E+001   1.510396000000E+001   1.489016000000E+001   1.482277000000E+001   1.470000000000E+001   1.470000000000E+001   1.470000000000E+001   1.470000000000E+001   1.470000000000E+001 
        1.470000000000E+001   1.470000000000E+001   1.470000000000E+001 
        1.305605000000E+001   1.375081000000E+001   1.395383000000E+001   1.417648000000E+001   1.409495000000E+001   1.405017000000E+001   1.470411000000E+001   1.477194000000E+001   1.494323000000E+001   1.492371000000E+001 
        1.486247000000E+001   1.484868000000E+001   1.488270000000E+001   1.470000000000E+001   1.470000000000E+001   1.470000000000E+001   1.470000000000E+001   1.470000000000E+001   1.470000000000E+001   1.470000000000E+001 
        1.470000000000E+001   1.470000000000E+001   1.470000000000E+001 
        1.148497000000E+001   1.204921000000E+001   1.246248000000E+001   1.302036000000E+001   1.284806000000E+001   1.341560000000E+001   1.359143000000E+001   1.450481000000E+001   1.491873000000E+001   1.477177000000E+001 
        1.500219000000E+001   1.486919000000E+001   1.470000000000E+001   1.470000000000E+001   1.470000000000E+001   1.470000000000E+001   1.470000000000E+001   1.470000000000E+001   1.470000000000E+001   1.470000000000E+001 
        1.470000000000E+001   1.470000000000E+001   1.470000000000E+001 
        9.582540000000E+000   1.001879000000E+001   1.018905000000E+001   1.120109000000E+001   1.171451000000E+001   1.188698000000E+001   1.214997000000E+001   1.270956000000E+001   1.354341000000E+001   1.409773000000E+001 
        1.470000000000E+001   1.470000000000E+001   1.470000000000E+001   1.470000000000E+001   1.470000000000E+001   1.470000000000E+001   1.470000000000E+001   1.470000000000E+001   1.470000000000E+001   1.470000000000E+001 
        1.470000000000E+001   1.470000000000E+001   1.470000000000E+001 
        7.751080000000E+000   8.031830000000E+000   8.312170000000E+000   8.557710000000E+000   8.764050000000E+000   9.253290000000E+000   9.781990000000E+000   1.115136000000E+001   1.212946000000E+001   1.302421000000E+001 
        1.470000000000E+001   1.470000000000E+001   1.470000000000E+001   1.470000000000E+001   1.470000000000E+001   1.470000000000E+001   1.470000000000E+001   1.470000000000E+001   1.470000000000E+001   1.470000000000E+001 
        1.470000000000E+001   1.470000000000E+001   1.470000000000E+001 
        6.862250000000E+000   7.014480000000E+000   7.215690000000E+000   7.450240000000E+000   7.695740000000E+000   7.955300000000E+000   8.784230000000E+000   9.738980000000E+000   1.077802000000E+001   1.186196000000E+001 
        1.347788000000E+001   1.470000000000E+001   1.470000000000E+001   1.470000000000E+001   1.470000000000E+001   1.470000000000E+001   1.470000000000E+001   1.470000000000E+001   1.470000000000E+001   1.470000000000E+001 
        1.470000000000E+001   1.470000000000E+001   1.470000000000E+001 
        5.908650000000E+000   5.944500000000E+000   6.421590000000E+000   6.634310000000E+000   6.875450000000E+000   7.133640000000E+000   7.399640000000E+000   8.269500000000E+000   9.331760000000E+000   1.044293000000E+001 
        1.170019000000E+001   1.336718000000E+001   1.416050000000E+001   1.470000000000E+001   1.470000000000E+001   1.470000000000E+001   1.470000000000E+001   1.470000000000E+001   1.470000000000E+001   1.470000000000E+001 
        1.470000000000E+001   1.470000000000E+001   1.470000000000E+001 
        5.559460000000E+000   5.562680000000E+000   5.627390000000E+000   5.723090000000E+000   6.289520000000E+000   6.521480000000E+000   6.753560000000E+000   6.973910000000E+000   7.880670000000E+000   9.015580000000E+000 
        1.038499000000E+001   1.230865000000E+001   1.329508000000E+001   1.361368000000E+001   1.423183000000E+001   1.470000000000E+001   1.470000000000E+001   1.470000000000E+001   1.470000000000E+001   1.470000000000E+001 
        1.470000000000E+001   1.470000000000E+001   1.470000000000E+001 
        5.344650000000E+000   5.327800000000E+000   5.398700000000E+000   5.492930000000E+000   5.579430000000E+000   5.651800000000E+000   5.771270000000E+000   5.920810000000E+000   6.702640000000E+000   7.731040000000E+000 
        8.238640000000E+000   1.173158000000E+001   1.288891000000E+001   1.320666000000E+001   1.361378000000E+001   1.424028000000E+001   1.442056000000E+001   1.456547000000E+001   1.463360000000E+001   1.465668000000E+001 