# Initial Conditions Package file created on 6/24/2024 by ModelMuse version 5.2.0.18.
BEGIN OPTIONS
END OPTIONS

BEGIN GRIDDATA
  STRT LAYERED IPRN    12
    CONSTANT   5.000000000000E+001  # STRT Layer1

    CONSTANT   5.000000000000E+001  # STRT Layer2

    CONSTANT   5.000000000000E+001  # STRT Layer3

    CONSTANT   5.000000000000E+001  # STRT Layer4

    CONSTANT   5.000000000000E+001  # STRT Layer5

    CONSTANT   5.000000000000E+001  # STRT Layer6

    CONSTANT   5.000000000000E+001  # STRT Layer7

    CONSTANT   5.000000000000E+001  # STRT Layer8

END GRIDDATA

