BEGIN OPTIONS
  PRINT_INPUT
END OPTIONS

BEGIN TIMING
  TDIS6 'SftTimeSeries.tdis'
END TIMING

BEGIN MODELS
  GWF6 'SftTimeSeries.nam' 'MODFLOW'
END MODELS

BEGIN EXCHANGES
END EXCHANGES

BEGIN SOLUTIONGROUP     1
  MXITER     1
  IMS6 'SftTimeSeries.ims' 'MODFLOW' 
END SOLUTIONGROUP

