# LAK: Lake package for MODFLOW 6 file created on 12/8/2023 by ModelMuse version 5.1.1.46.
BEGIN OPTIONS
    FLOW_PACKAGE_NAME LAK-1
    FLOW_PACKAGE_AUXILIARY_NAME  Chem
    BOUNDNAMES
    TS6 FILEIN SftTimeSeries.lak6.MyGroup.ts
    TS6 FILEIN SftTimeSeries.Chem.lkt.MyGroup.ts
    PRINT_INPUT
    SAVE_FLOWS
    CONCENTRATION FILEOUT SftTimeSeries.Chem.lkt_conc
    BUDGET FILEOUT SftTimeSeries.Chem.lkt_budget
    BUDGETCSV FILEOUT SftTimeSeries.Chem.lkt_budget.csv
    OBS6 FILEIN SftTimeSeries.Chem.ob_lkt
END OPTIONS

BEGIN PACKAGEDATA
# <lakeno> <strt> <boundname>
       1  0.000000000000E+000  'Lake1' 
       2  0.000000000000E+000  'Lake2' 
END PACKAGEDATA

BEGIN PERIOD      1
     1 STATUS ACTIVE
     1 RAINFALL Sft1
     1 EVAPORATION  0.000000000000E+000 
     1 RUNOFF  0.000000000000E+000 
     1 EXT-INFLOW  0.000000000000E+000 

     2 STATUS ACTIVE
     2 RAINFALL  0.000000000000E+000 
     2 EVAPORATION  0.000000000000E+000 
     2 RUNOFF  0.000000000000E+000 
     2 EXT-INFLOW  0.000000000000E+000 

END PERIOD 

