# SFR: MODFLOW-6 Stream Flow Routing package file created on 7/3/2024 by ModelMuse version 5.2.0.18.
BEGIN OPTIONS
    FLOW_PACKAGE_NAME SFR-1
    FLOW_PACKAGE_AUXILIARY_NAME  Chem
    BOUNDNAMES
    TS6 FILEIN SftTimeSeries.Chem.sft.MyGroup.ts
    PRINT_INPUT
    SAVE_FLOWS
    CONCENTRATION FILEOUT SftTimeSeries.Chem.sft_conc
    BUDGET FILEOUT SftTimeSeries.Chem.sft_budget
    BUDGETCSV FILEOUT SftTimeSeries.Chem.sft_budget.csv
    OBS6 FILEIN SftTimeSeries.Chem.ob_sft
END OPTIONS

BEGIN PACKAGEDATA
# <rno> <strt> <boundname>
# defined by Seg1
     1  0.000000000000E+000  Seg1
     2  0.000000000000E+000  Seg1
     3  0.000000000000E+000  Seg1
     4  0.000000000000E+000  Seg1
     5  0.000000000000E+000  Seg1
     6  0.000000000000E+000  Seg1
# defined by Seg2
     7  0.000000000000E+000  Seg2
     8  0.000000000000E+000  Seg2
     9  0.000000000000E+000  Seg2
    10  0.000000000000E+000  Seg2
    11  0.000000000000E+000  Seg2
    12  0.000000000000E+000  Seg2
    13  0.000000000000E+000  Seg2
    14  0.000000000000E+000  Seg2
    15  0.000000000000E+000  Seg2
    16  0.000000000000E+000  Seg2
    17  0.000000000000E+000  Seg2
    18  0.000000000000E+000  Seg2
# defined by Seg3
    19  0.000000000000E+000  Seg3
    20  0.000000000000E+000  Seg3
    21  0.000000000000E+000  Seg3
    22  0.000000000000E+000  Seg3
    23  0.000000000000E+000  Seg3
    24  0.000000000000E+000  Seg3
    25  0.000000000000E+000  Seg3
    26  0.000000000000E+000  Seg3
    27  0.000000000000E+000  Seg3
    28  0.000000000000E+000  Seg3
    29  0.000000000000E+000  Seg3
    30  0.000000000000E+000  Seg3
    31  0.000000000000E+000  Seg3
# defined by Seg4
    32  0.000000000000E+000  Seg4
    33  0.000000000000E+000  Seg4
    34  0.000000000000E+000  Seg4
    35  0.000000000000E+000  Seg4
    36  0.000000000000E+000  Seg4
    37  0.000000000000E+000  Seg4
    38  0.000000000000E+000  Seg4
END PACKAGEDATA

BEGIN PERIOD      1
# rno sftsetting (defined by Seg1)
     1 STATUS ACTIVE
     1 RAINFALL Sft1
     1 EVAPORATION  0.000000000000E+000 
     1 RUNOFF  0.000000000000E+000 
     1 INFLOW  0.000000000000E+000 

     2 STATUS ACTIVE
     2 RAINFALL Sft1
     2 EVAPORATION  0.000000000000E+000 
     2 RUNOFF  0.000000000000E+000 
     2 INFLOW  0.000000000000E+000 

     3 STATUS ACTIVE
     3 RAINFALL Sft1
     3 EVAPORATION  0.000000000000E+000 
     3 RUNOFF  0.000000000000E+000 
     3 INFLOW  0.000000000000E+000 

     4 STATUS ACTIVE
     4 RAINFALL Sft1
     4 EVAPORATION  0.000000000000E+000 
     4 RUNOFF  0.000000000000E+000 
     4 INFLOW  0.000000000000E+000 

     5 STATUS ACTIVE
     5 RAINFALL Sft1
     5 EVAPORATION  0.000000000000E+000 
     5 RUNOFF  0.000000000000E+000 
     5 INFLOW  0.000000000000E+000 

     6 STATUS ACTIVE
     6 RAINFALL Sft1
     6 EVAPORATION  0.000000000000E+000 
     6 RUNOFF  0.000000000000E+000 
     6 INFLOW  0.000000000000E+000 

# rno sftsetting (defined by Seg2)
     7 STATUS ACTIVE
     7 RAINFALL  0.000000000000E+000 
     7 EVAPORATION  0.000000000000E+000 
     7 RUNOFF  0.000000000000E+000 
     7 INFLOW  0.000000000000E+000 

     8 STATUS ACTIVE
     8 RAINFALL  0.000000000000E+000 
     8 EVAPORATION  0.000000000000E+000 
     8 RUNOFF  0.000000000000E+000 
     8 INFLOW  0.000000000000E+000 

     9 STATUS ACTIVE
     9 RAINFALL  0.000000000000E+000 
     9 EVAPORATION  0.000000000000E+000 
     9 RUNOFF  0.000000000000E+000 
     9 INFLOW  0.000000000000E+000 

    10 STATUS ACTIVE
    10 RAINFALL  0.000000000000E+000 
    10 EVAPORATION  0.000000000000E+000 
    10 RUNOFF  0.000000000000E+000 
    10 INFLOW  0.000000000000E+000 

    11 STATUS ACTIVE
    11 RAINFALL  0.000000000000E+000 
    11 EVAPORATION  0.000000000000E+000 
    11 RUNOFF  0.000000000000E+000 
    11 INFLOW  0.000000000000E+000 

    12 STATUS ACTIVE
    12 RAINFALL  0.000000000000E+000 
    12 EVAPORATION  0.000000000000E+000 
    12 RUNOFF  0.000000000000E+000 
    12 INFLOW  0.000000000000E+000 

    13 STATUS ACTIVE
    13 RAINFALL  0.000000000000E+000 
    13 EVAPORATION  0.000000000000E+000 
    13 RUNOFF  0.000000000000E+000 
    13 INFLOW  0.000000000000E+000 

    14 STATUS ACTIVE
    14 RAINFALL  0.000000000000E+000 
    14 EVAPORATION  0.000000000000E+000 
    14 RUNOFF  0.000000000000E+000 
    14 INFLOW  0.000000000000E+000 

    15 STATUS ACTIVE
    15 RAINFALL  0.000000000000E+000 
    15 EVAPORATION  0.000000000000E+000 
    15 RUNOFF  0.000000000000E+000 
    15 INFLOW  0.000000000000E+000 

    16 STATUS ACTIVE
    16 RAINFALL  0.000000000000E+000 
    16 EVAPORATION  0.000000000000E+000 
    16 RUNOFF  0.000000000000E+000 
    16 INFLOW  0.000000000000E+000 

    17 STATUS ACTIVE
    17 RAINFALL  0.000000000000E+000 
    17 EVAPORATION  0.000000000000E+000 
    17 RUNOFF  0.000000000000E+000 
    17 INFLOW  0.000000000000E+000 

    18 STATUS ACTIVE
    18 RAINFALL  0.000000000000E+000 
    18 EVAPORATION  0.000000000000E+000 
    18 RUNOFF  0.000000000000E+000 
    18 INFLOW  0.000000000000E+000 

# rno sftsetting (defined by Seg3)
    19 STATUS ACTIVE
    19 RAINFALL  0.000000000000E+000 
    19 EVAPORATION  0.000000000000E+000 
    19 RUNOFF  0.000000000000E+000 
    19 INFLOW  0.000000000000E+000 

    20 STATUS ACTIVE
    20 RAINFALL  0.000000000000E+000 
    20 EVAPORATION  0.000000000000E+000 
    20 RUNOFF  0.000000000000E+000 
    20 INFLOW  0.000000000000E+000 

    21 STATUS ACTIVE
    21 RAINFALL  0.000000000000E+000 
    21 EVAPORATION  0.000000000000E+000 
    21 RUNOFF  0.000000000000E+000 
    21 INFLOW  0.000000000000E+000 

    22 STATUS ACTIVE
    22 RAINFALL  0.000000000000E+000 
    22 EVAPORATION  0.000000000000E+000 
    22 RUNOFF  0.000000000000E+000 
    22 INFLOW  0.000000000000E+000 

    23 STATUS ACTIVE
    23 RAINFALL  0.000000000000E+000 
    23 EVAPORATION  0.000000000000E+000 
    23 RUNOFF  0.000000000000E+000 
    23 INFLOW  0.000000000000E+000 

    24 STATUS ACTIVE
    24 RAINFALL  0.000000000000E+000 
    24 EVAPORATION  0.000000000000E+000 
    24 RUNOFF  0.000000000000E+000 
    24 INFLOW  0.000000000000E+000 

    25 STATUS ACTIVE
    25 RAINFALL  0.000000000000E+000 
    25 EVAPORATION  0.000000000000E+000 
    25 RUNOFF  0.000000000000E+000 
    25 INFLOW  0.000000000000E+000 

    26 STATUS ACTIVE
    26 RAINFALL  0.000000000000E+000 
    26 EVAPORATION  0.000000000000E+000 
    26 RUNOFF  0.000000000000E+000 
    26 INFLOW  0.000000000000E+000 

    27 STATUS ACTIVE
    27 RAINFALL  0.000000000000E+000 
    27 EVAPORATION  0.000000000000E+000 
    27 RUNOFF  0.000000000000E+000 
    27 INFLOW  0.000000000000E+000 

    28 STATUS ACTIVE
    28 RAINFALL  0.000000000000E+000 
    28 EVAPORATION  0.000000000000E+000 
    28 RUNOFF  0.000000000000E+000 
    28 INFLOW  0.000000000000E+000 

    29 STATUS ACTIVE
    29 RAINFALL  0.000000000000E+000 
    29 EVAPORATION  0.000000000000E+000 
    29 RUNOFF  0.000000000000E+000 
    29 INFLOW  0.000000000000E+000 

    30 STATUS ACTIVE
    30 RAINFALL  0.000000000000E+000 
    30 EVAPORATION  0.000000000000E+000 
    30 RUNOFF  0.000000000000E+000 
    30 INFLOW  0.000000000000E+000 

    31 STATUS ACTIVE
    31 RAINFALL  0.000000000000E+000 
    31 EVAPORATION  0.000000000000E+000 
    31 RUNOFF  0.000000000000E+000 
    31 INFLOW  0.000000000000E+000 

# rno sftsetting (defined by Seg4)
    32 STATUS ACTIVE
    32 RAINFALL  0.000000000000E+000 
    32 EVAPORATION  0.000000000000E+000 
    32 RUNOFF  0.000000000000E+000 
    32 INFLOW  0.000000000000E+000 

    33 STATUS ACTIVE
    33 RAINFALL  0.000000000000E+000 
    33 EVAPORATION  0.000000000000E+000 
    33 RUNOFF  0.000000000000E+000 
    33 INFLOW  0.000000000000E+000 

    34 STATUS ACTIVE
    34 RAINFALL  0.000000000000E+000 
    34 EVAPORATION  0.000000000000E+000 
    34 RUNOFF  0.000000000000E+000 
    34 INFLOW  0.000000000000E+000 

    35 STATUS ACTIVE
    35 RAINFALL  0.000000000000E+000 
    35 EVAPORATION  0.000000000000E+000 
    35 RUNOFF  0.000000000000E+000 
    35 INFLOW  0.000000000000E+000 

    36 STATUS ACTIVE
    36 RAINFALL  0.000000000000E+000 
    36 EVAPORATION  0.000000000000E+000 
    36 RUNOFF  0.000000000000E+000 
    36 INFLOW  0.000000000000E+000 

    37 STATUS ACTIVE
    37 RAINFALL  0.000000000000E+000 
    37 EVAPORATION  0.000000000000E+000 
    37 RUNOFF  0.000000000000E+000 
    37 INFLOW  0.000000000000E+000 

    38 STATUS ACTIVE
    38 RAINFALL  0.000000000000E+000 
    38 EVAPORATION  0.000000000000E+000 
    38 RUNOFF  0.000000000000E+000 
    38 INFLOW  0.000000000000E+000 

END PERIOD 

