# SFR: MODFLOW-6 Stream Flow Routing package file created on 7/7/2023 by ModelMuse version 5.1.1.33.
BEGIN OPTIONS
  AUXILIARY Chem
    PRINT_INPUT
    PRINT_STAGE
    PRINT_FLOWS
    BOUNDNAMES
    TS6 FILEIN SftTimeSeries.sfr.MyGroup.ts
    SAVE_FLOWS
    STAGE FILEOUT SftTimeSeries.stage
    BUDGET FILEOUT SftTimeSeries.sfr_budget
  PACKAGE_CONVERGENCE FILEOUT SftTimeSeries.SfrConvergence.CSV
    MAXIMUM_ITERATIONS   100
    MAXIMUM_DEPTH_CHANGE  1.000000000000E-005 
    LENGTH_CONVERSION  3.280810000000E+000 
    TIME_CONVERSION  8.640000000000E+004 
    OBS6 FILEIN SftTimeSeries.ob_sfr
  MOVER
END OPTIONS

BEGIN DIMENSIONS
    NREACHES     38
END DIMENSIONS

BEGIN PACKAGEDATA
# <rno>   <cellid>        <rlen>                <rwid>                <rgrd>                <rtp>                 <rbth>                <rhk>                 <man>                <ncon> <ustrf>                  <ndv> [<aux(naux)>] [<boundname>]
# defined by Seg1
     1     1     1    23  4.000000000000E+002   5.000000000000E+000   1.818180000000E-003   4.863636364000E+001   1.000000000000E+000   1.000000000000E+002   3.000000000000E-002      1  1.000000000000E+000      0  0.000000000000E+000  Seg1
     2     1     2    23  2.000000000000E+002   5.000000000000E+000   1.818180000000E-003   4.809090909000E+001   1.000000000000E+000   1.000000000000E+002   3.000000000000E-002      2  1.000000000000E+000      0  0.000000000000E+000  Seg1
     3     1     2    22  4.000000000000E+002   5.000000000000E+000   1.818180000000E-003   4.754545455000E+001   1.000000000000E+000   1.000000000000E+002   3.000000000000E-002      2  1.000000000000E+000      0  0.000000000000E+000  Seg1
     4     1     3    21  4.000000000000E+002   5.000000000000E+000   1.818180000000E-003   4.681818182000E+001   1.000000000000E+000   1.000000000000E+002   3.000000000000E-002      2  1.000000000000E+000      0  0.000000000000E+000  Seg1
     5     1     4    20  4.000000000000E+002   5.000000000000E+000   1.818180000000E-003   4.609090909000E+001   1.000000000000E+000   1.000000000000E+002   3.000000000000E-002      2  1.000000000000E+000      0  0.000000000000E+000  Seg1
     6     1     5    20  4.000000000000E+002   5.000000000000E+000   1.818180000000E-003   4.536363636000E+001   1.000000000000E+000   1.000000000000E+002   3.000000000000E-002      1  1.000000000000E+000      0  0.000000000000E+000  Seg1
# defined by Seg2
     7     1    17    18  4.000000000000E+002   5.000000000000E+000   2.187500000000E-003   4.406250000000E+001   1.000000000000E+000   1.000000000000E+002   3.000000000000E-002      1  1.000000000000E+000      0  0.000000000000E+000  Seg2
     8     1    18    18  4.000000000000E+002   5.000000000000E+000   2.187500000000E-003   4.318750000000E+001   1.000000000000E+000   1.000000000000E+002   3.000000000000E-002      2  1.000000000000E+000      0  0.000000000000E+000  Seg2
     9     1    19    18  4.000000000000E+002   5.000000000000E+000   2.187500000000E-003   4.231250000000E+001   1.000000000000E+000   1.000000000000E+002   3.000000000000E-002      2  1.000000000000E+000      0  0.000000000000E+000  Seg2
    10     1    20    17  4.000000000000E+002   5.000000000000E+000   2.187500000000E-003   4.143750000000E+001   1.000000000000E+000   1.000000000000E+002   3.000000000000E-002      2  1.000000000000E+000      0  0.000000000000E+000  Seg2
    11     1    21    17  4.000000000000E+002   5.000000000000E+000   2.187500000000E-003   4.056250000000E+001   1.000000000000E+000   1.000000000000E+002   3.000000000000E-002      2  1.000000000000E+000      0  0.000000000000E+000  Seg2
    12     1    22    17  4.000000000000E+002   5.000000000000E+000   2.187500000000E-003   3.968750000000E+001   1.000000000000E+000   1.000000000000E+002   3.000000000000E-002      2  1.000000000000E+000      0  0.000000000000E+000  Seg2
    13     1    23    16  4.000000000000E+002   5.000000000000E+000   2.187500000000E-003   3.881250000000E+001   1.000000000000E+000   1.000000000000E+002   3.000000000000E-002      2  1.000000000000E+000      0  0.000000000000E+000  Seg2
    14     1    24    16  4.000000000000E+002   5.000000000000E+000   2.187500000000E-003   3.793750000000E+001   1.000000000000E+000   1.000000000000E+002   3.000000000000E-002      2  1.000000000000E+000      0  0.000000000000E+000  Seg2
    15     1    25    16  4.000000000000E+002   5.000000000000E+000   2.187500000000E-003   3.706250000000E+001   1.000000000000E+000   1.000000000000E+002   3.000000000000E-002      2  1.000000000000E+000      0  0.000000000000E+000  Seg2
    16     1    26    16  4.000000000000E+002   5.000000000000E+000   2.187500000000E-003   3.618750000000E+001   1.000000000000E+000   1.000000000000E+002   3.000000000000E-002      2  1.000000000000E+000      0  0.000000000000E+000  Seg2
    17     1    27    16  4.000000000000E+002   5.000000000000E+000   2.187500000000E-003   3.531250000000E+001   1.000000000000E+000   1.000000000000E+002   3.000000000000E-002      2  1.000000000000E+000      0  0.000000000000E+000  Seg2
    18     1    28    15  4.000000000000E+002   5.000000000000E+000   2.187500000000E-003   3.434090909000E+001   1.000000000000E+000   1.000000000000E+002   3.000000000000E-002      2  1.000000000000E+000      0  0.000000000000E+000  Seg2
# defined by Seg3
    19     1    18    11  4.000000000000E+002   5.000000000000E+000   1.704550000000E-003   4.115909091000E+001   1.000000000000E+000   1.000000000000E+002   3.000000000000E-002      1  1.000000000000E+000      0  0.000000000000E+000  Seg3
    20     1    19    11  2.000000000000E+002   5.000000000000E+000   1.704550000000E-003   4.064772727000E+001   1.000000000000E+000   1.000000000000E+002   3.000000000000E-002      2  1.000000000000E+000      0  0.000000000000E+000  Seg3
    21     1    19    12  2.000000000000E+002   5.000000000000E+000   1.704550000000E-003   4.030681818000E+001   1.000000000000E+000   1.000000000000E+002   3.000000000000E-002      2  1.000000000000E+000      0  0.000000000000E+000  Seg3
    22     1    20    12  4.000000000000E+002   5.000000000000E+000   1.704550000000E-003   3.979545455000E+001   1.000000000000E+000   1.000000000000E+002   3.000000000000E-002      2  1.000000000000E+000      0  0.000000000000E+000  Seg3
    23     1    21    12  4.000000000000E+002   5.000000000000E+000   1.704550000000E-003   3.911363636000E+001   1.000000000000E+000   1.000000000000E+002   3.000000000000E-002      2  1.000000000000E+000      0  0.000000000000E+000  Seg3
    24     1    22    13  4.000000000000E+002   5.000000000000E+000   1.704550000000E-003   3.843181818000E+001   1.000000000000E+000   1.000000000000E+002   3.000000000000E-002      2  1.000000000000E+000      0  0.000000000000E+000  Seg3
    25     1    23    13  4.000000000000E+002   5.000000000000E+000   1.704550000000E-003   3.775000000000E+001   1.000000000000E+000   1.000000000000E+002   3.000000000000E-002      2  1.000000000000E+000      0  0.000000000000E+000  Seg3
    26     1    24    13  2.000000000000E+002   5.000000000000E+000   1.704550000000E-003   3.723863636000E+001   1.000000000000E+000   1.000000000000E+002   3.000000000000E-002      2  1.000000000000E+000      0  0.000000000000E+000  Seg3
    27     1    24    14  2.000000000000E+002   5.000000000000E+000   1.704550000000E-003   3.689772727000E+001   1.000000000000E+000   1.000000000000E+002   3.000000000000E-002      2  1.000000000000E+000      0  0.000000000000E+000  Seg3
    28     1    25    14  4.000000000000E+002   5.000000000000E+000   1.704550000000E-003   3.638636364000E+001   1.000000000000E+000   1.000000000000E+002   3.000000000000E-002      2  1.000000000000E+000      0  0.000000000000E+000  Seg3
    29     1    26    14  4.000000000000E+002   5.000000000000E+000   1.704550000000E-003   3.570454545000E+001   1.000000000000E+000   1.000000000000E+002   3.000000000000E-002      2  1.000000000000E+000      0  0.000000000000E+000  Seg3
    30     1    27    14  4.000000000000E+002   5.000000000000E+000   1.704550000000E-003   3.502272727000E+001   1.000000000000E+000   1.000000000000E+002   3.000000000000E-002      2  1.000000000000E+000      0  0.000000000000E+000  Seg3
    31     1    28    15  4.000000000000E+002   5.000000000000E+000   1.704550000000E-003   3.434090909000E+001   1.000000000000E+000   1.000000000000E+002   3.000000000000E-002      2  1.000000000000E+000      0  0.000000000000E+000  Seg3
# defined by Seg4
    32     1    29    15  4.000000000000E+002   5.000000000000E+000   2.428570000000E-003   3.351428571000E+001   1.000000000000E+000   1.000000000000E+002   3.000000000000E-002      3  1.000000000000E+000      0  0.000000000000E+000  Seg4
    33     1    30    15  4.000000000000E+002   5.000000000000E+000   2.428570000000E-003   3.254285714000E+001   1.000000000000E+000   1.000000000000E+002   3.000000000000E-002      2  1.000000000000E+000      0  0.000000000000E+000  Seg4
    34     1    31    15  4.000000000000E+002   5.000000000000E+000   2.428570000000E-003   3.157142857000E+001   1.000000000000E+000   1.000000000000E+002   3.000000000000E-002      2  1.000000000000E+000      0  0.000000000000E+000  Seg4
    35     1    32    15  4.000000000000E+002   5.000000000000E+000   2.428570000000E-003   3.060000000000E+001   1.000000000000E+000   1.000000000000E+002   3.000000000000E-002      2  1.000000000000E+000      0  0.000000000000E+000  Seg4
    36     1    33    15  4.000000000000E+002   5.000000000000E+000   2.428570000000E-003   2.962857143000E+001   1.000000000000E+000   1.000000000000E+002   3.000000000000E-002      2  1.000000000000E+000      0  0.000000000000E+000  Seg4
    37     1    34    15  4.000000000000E+002   5.000000000000E+000   2.428570000000E-003   2.865714286000E+001   1.000000000000E+000   1.000000000000E+002   3.000000000000E-002      2  1.000000000000E+000      0  0.000000000000E+000  Seg4
    38     1    35    15  4.000000000000E+002   5.000000000000E+000   2.428570000000E-003   2.768571429000E+001   1.000000000000E+000   1.000000000000E+002   3.000000000000E-002      1  1.000000000000E+000      0  0.000000000000E+000  Seg4
END PACKAGEDATA

BEGIN CONNECTIONDATA
# defined by Seg1
     1    -2
     2     1    -3
     3     2    -4
     4     3    -5
     5     4    -6
     6     5
# defined by Seg2
     7    -8
     8     7    -9
     9     8   -10
    10     9   -11
    11    10   -12
    12    11   -13
    13    12   -14
    14    13   -15
    15    14   -16
    16    15   -17
    17    16   -18
    18    17   -32
# defined by Seg3
    19   -20
    20    19   -21
    21    20   -22
    22    21   -23
    23    22   -24
    24    23   -25
    25    24   -26
    26    25   -27
    27    26   -28
    28    27   -29
    29    28   -30
    30    29   -31
    31    30   -32
# defined by Seg4
    32   -33    18    31
    33    32   -34
    34    33   -35
    35    34   -36
    36    35   -37
    37    36   -38
    38    37
END CONNECTIONDATA

BEGIN PERIOD      1
# rno sfrsetting (defined by Seg1)
     1 STATUS ACTIVE
     1 UPSTREAM_FRACTION  1.000000000000E+000 
     1 INFLOW  8.640000000000E+004 
     1 RAINFALL Sfr1
     1 EVAPORATION  0.000000000000E+000 
     1 RUNOFF  0.000000000000E+000 
     1 MANNING  3.000000000000E-002 

     2 STATUS ACTIVE
     2 UPSTREAM_FRACTION  1.000000000000E+000 
     2 INFLOW  0.000000000000E+000 
     2 RAINFALL Sfr1
     2 EVAPORATION  0.000000000000E+000 
     2 RUNOFF  0.000000000000E+000 
     2 MANNING  3.000000000000E-002 

     3 STATUS ACTIVE
     3 UPSTREAM_FRACTION  1.000000000000E+000 
     3 INFLOW  0.000000000000E+000 
     3 RAINFALL Sfr1
     3 EVAPORATION  0.000000000000E+000 
     3 RUNOFF  0.000000000000E+000 
     3 MANNING  3.000000000000E-002 

     4 STATUS ACTIVE
     4 UPSTREAM_FRACTION  1.000000000000E+000 
     4 INFLOW  0.000000000000E+000 
     4 RAINFALL Sfr1
     4 EVAPORATION  0.000000000000E+000 
     4 RUNOFF  0.000000000000E+000 
     4 MANNING  3.000000000000E-002 

     5 STATUS ACTIVE
     5 UPSTREAM_FRACTION  1.000000000000E+000 
     5 INFLOW  0.000000000000E+000 
     5 RAINFALL Sfr1
     5 EVAPORATION  0.000000000000E+000 
     5 RUNOFF  0.000000000000E+000 
     5 MANNING  3.000000000000E-002 

     6 STATUS ACTIVE
     6 UPSTREAM_FRACTION  1.000000000000E+000 
     6 INFLOW  0.000000000000E+000 
     6 RAINFALL Sfr1
     6 EVAPORATION  0.000000000000E+000 
     6 RUNOFF  0.000000000000E+000 
     6 MANNING  3.000000000000E-002 

     6 AUXILIARY  Chem  0.000000000000E+000 
# rno sfrsetting (defined by Seg2)
     7 STATUS ACTIVE
     7 UPSTREAM_FRACTION  1.000000000000E+000 
     7 INFLOW  0.000000000000E+000 
     7 RAINFALL  0.000000000000E+000 
     7 EVAPORATION  0.000000000000E+000 
     7 RUNOFF  0.000000000000E+000 
     7 MANNING  3.000000000000E-002 

     8 STATUS ACTIVE
     8 UPSTREAM_FRACTION  1.000000000000E+000 
     8 INFLOW  0.000000000000E+000 
     8 RAINFALL  0.000000000000E+000 
     8 EVAPORATION  0.000000000000E+000 
     8 RUNOFF  0.000000000000E+000 
     8 MANNING  3.000000000000E-002 

     9 STATUS ACTIVE
     9 UPSTREAM_FRACTION  1.000000000000E+000 
     9 INFLOW  0.000000000000E+000 
     9 RAINFALL  0.000000000000E+000 
     9 EVAPORATION  0.000000000000E+000 
     9 RUNOFF  0.000000000000E+000 
     9 MANNING  3.000000000000E-002 

    10 STATUS ACTIVE
    10 UPSTREAM_FRACTION  1.000000000000E+000 
    10 INFLOW  0.000000000000E+000 
    10 RAINFALL  0.000000000000E+000 
    10 EVAPORATION  0.000000000000E+000 
    10 RUNOFF  0.000000000000E+000 
    10 MANNING  3.000000000000E-002 

    11 STATUS ACTIVE
    11 UPSTREAM_FRACTION  1.000000000000E+000 
    11 INFLOW  0.000000000000E+000 
    11 RAINFALL  0.000000000000E+000 
    11 EVAPORATION  0.000000000000E+000 
    11 RUNOFF  0.000000000000E+000 
    11 MANNING  3.000000000000E-002 

    12 STATUS ACTIVE
    12 UPSTREAM_FRACTION  1.000000000000E+000 
    12 INFLOW  0.000000000000E+000 
    12 RAINFALL  0.000000000000E+000 
    12 EVAPORATION  0.000000000000E+000 
    12 RUNOFF  0.000000000000E+000 
    12 MANNING  3.000000000000E-002 

    13 STATUS ACTIVE
    13 UPSTREAM_FRACTION  1.000000000000E+000 
    13 INFLOW  0.000000000000E+000 
    13 RAINFALL  0.000000000000E+000 
    13 EVAPORATION  0.000000000000E+000 
    13 RUNOFF  0.000000000000E+000 
    13 MANNING  3.000000000000E-002 

    14 STATUS ACTIVE
    14 UPSTREAM_FRACTION  1.000000000000E+000 
    14 INFLOW  0.000000000000E+000 
    14 RAINFALL  0.000000000000E+000 
    14 EVAPORATION  0.000000000000E+000 
    14 RUNOFF  0.000000000000E+000 
    14 MANNING  3.000000000000E-002 

    15 STATUS ACTIVE
    15 UPSTREAM_FRACTION  1.000000000000E+000 
    15 INFLOW  0.000000000000E+000 
    15 RAINFALL  0.000000000000E+000 
    15 EVAPORATION  0.000000000000E+000 
    15 RUNOFF  0.000000000000E+000 
    15 MANNING  3.000000000000E-002 

    16 STATUS ACTIVE
    16 UPSTREAM_FRACTION  1.000000000000E+000 
    16 INFLOW  0.000000000000E+000 
    16 RAINFALL  0.000000000000E+000 
    16 EVAPORATION  0.000000000000E+000 
    16 RUNOFF  0.000000000000E+000 
    16 MANNING  3.000000000000E-002 

    17 STATUS ACTIVE
    17 UPSTREAM_FRACTION  1.000000000000E+000 
    17 INFLOW  0.000000000000E+000 
    17 RAINFALL  0.000000000000E+000 
    17 EVAPORATION  0.000000000000E+000 
    17 RUNOFF  0.000000000000E+000 
    17 MANNING  3.000000000000E-002 

    18 STATUS ACTIVE
    18 UPSTREAM_FRACTION  1.000000000000E+000 
    18 INFLOW  0.000000000000E+000 
    18 RAINFALL  0.000000000000E+000 
    18 EVAPORATION  0.000000000000E+000 
    18 RUNOFF  0.000000000000E+000 
    18 MANNING  3.000000000000E-002 

    18 AUXILIARY  Chem  0.000000000000E+000 
# rno sfrsetting (defined by Seg3)
    19 STATUS ACTIVE
    19 UPSTREAM_FRACTION  1.000000000000E+000 
    19 INFLOW  8.640000000000E+003 
    19 RAINFALL  0.000000000000E+000 
    19 EVAPORATION  0.000000000000E+000 
    19 RUNOFF  0.000000000000E+000 
    19 MANNING  3.000000000000E-002 

    20 STATUS ACTIVE
    20 UPSTREAM_FRACTION  1.000000000000E+000 
    20 INFLOW  0.000000000000E+000 
    20 RAINFALL  0.000000000000E+000 
    20 EVAPORATION  0.000000000000E+000 
    20 RUNOFF  0.000000000000E+000 
    20 MANNING  3.000000000000E-002 

    21 STATUS ACTIVE
    21 UPSTREAM_FRACTION  1.000000000000E+000 
    21 INFLOW  0.000000000000E+000 
    21 RAINFALL  0.000000000000E+000 
    21 EVAPORATION  0.000000000000E+000 
    21 RUNOFF  0.000000000000E+000 
    21 MANNING  3.000000000000E-002 

    22 STATUS ACTIVE
    22 UPSTREAM_FRACTION  1.000000000000E+000 
    22 INFLOW  0.000000000000E+000 
    22 RAINFALL  0.000000000000E+000 
    22 EVAPORATION  0.000000000000E+000 
    22 RUNOFF  0.000000000000E+000 
    22 MANNING  3.000000000000E-002 

    23 STATUS ACTIVE
    23 UPSTREAM_FRACTION  1.000000000000E+000 
    23 INFLOW  0.000000000000E+000 
    23 RAINFALL  0.000000000000E+000 
    23 EVAPORATION  0.000000000000E+000 
    23 RUNOFF  0.000000000000E+000 
    23 MANNING  3.000000000000E-002 

    24 STATUS ACTIVE
    24 UPSTREAM_FRACTION  1.000000000000E+000 
    24 INFLOW  0.000000000000E+000 
    24 RAINFALL  0.000000000000E+000 
    24 EVAPORATION  0.000000000000E+000 
    24 RUNOFF  0.000000000000E+000 
    24 MANNING  3.000000000000E-002 

    25 STATUS ACTIVE
    25 UPSTREAM_FRACTION  1.000000000000E+000 
    25 INFLOW  0.000000000000E+000 
    25 RAINFALL  0.000000000000E+000 
    25 EVAPORATION  0.000000000000E+000 
    25 RUNOFF  0.000000000000E+000 
    25 MANNING  3.000000000000E-002 

    26 STATUS ACTIVE
    26 UPSTREAM_FRACTION  1.000000000000E+000 
    26 INFLOW  0.000000000000E+000 
    26 RAINFALL  0.000000000000E+000 
    26 EVAPORATION  0.000000000000E+000 
    26 RUNOFF  0.000000000000E+000 
    26 MANNING  3.000000000000E-002 

    27 STATUS ACTIVE
    27 UPSTREAM_FRACTION  1.000000000000E+000 
    27 INFLOW  0.000000000000E+000 
    27 RAINFALL  0.000000000000E+000 
    27 EVAPORATION  0.000000000000E+000 
    27 RUNOFF  0.000000000000E+000 
    27 MANNING  3.000000000000E-002 

    28 STATUS ACTIVE
    28 UPSTREAM_FRACTION  1.000000000000E+000 
    28 INFLOW  0.000000000000E+000 
    28 RAINFALL  0.000000000000E+000 
    28 EVAPORATION  0.000000000000E+000 
    28 RUNOFF  0.000000000000E+000 
    28 MANNING  3.000000000000E-002 

    29 STATUS ACTIVE
    29 UPSTREAM_FRACTION  1.000000000000E+000 
    29 INFLOW  0.000000000000E+000 
    29 RAINFALL  0.000000000000E+000 
    29 EVAPORATION  0.000000000000E+000 
    29 RUNOFF  0.000000000000E+000 
    29 MANNING  3.000000000000E-002 

    30 STATUS ACTIVE
    30 UPSTREAM_FRACTION  1.000000000000E+000 
    30 INFLOW  0.000000000000E+000 
    30 RAINFALL  0.000000000000E+000 
    30 EVAPORATION  0.000000000000E+000 
    30 RUNOFF  0.000000000000E+000 
    30 MANNING  3.000000000000E-002 

    31 STATUS ACTIVE
    31 UPSTREAM_FRACTION  1.000000000000E+000 
    31 INFLOW  0.000000000000E+000 
    31 RAINFALL  0.000000000000E+000 
    31 EVAPORATION  0.000000000000E+000 
    31 RUNOFF  0.000000000000E+000 
    31 MANNING  3.000000000000E-002 

    31 AUXILIARY  Chem  0.000000000000E+000 
# rno sfrsetting (defined by Seg4)
    32 STATUS ACTIVE
    32 UPSTREAM_FRACTION  1.000000000000E+000 
    32 INFLOW  0.000000000000E+000 
    32 RAINFALL  0.000000000000E+000 
    32 EVAPORATION  0.000000000000E+000 
    32 RUNOFF  0.000000000000E+000 
    32 MANNING  3.000000000000E-002 

    33 STATUS ACTIVE
    33 UPSTREAM_FRACTION  1.000000000000E+000 
    33 INFLOW  0.000000000000E+000 
    33 RAINFALL  0.000000000000E+000 
    33 EVAPORATION  0.000000000000E+000 
    33 RUNOFF  0.000000000000E+000 
    33 MANNING  3.000000000000E-002 

    34 STATUS ACTIVE
    34 UPSTREAM_FRACTION  1.000000000000E+000 
    34 INFLOW  0.000000000000E+000 
    34 RAINFALL  0.000000000000E+000 
    34 EVAPORATION  0.000000000000E+000 
    34 RUNOFF  0.000000000000E+000 
    34 MANNING  3.000000000000E-002 

    35 STATUS ACTIVE
    35 UPSTREAM_FRACTION  1.000000000000E+000 
    35 INFLOW  0.000000000000E+000 
    35 RAINFALL  0.000000000000E+000 
    35 EVAPORATION  0.000000000000E+000 
    35 RUNOFF  0.000000000000E+000 
    35 MANNING  3.000000000000E-002 

    36 STATUS ACTIVE
    36 UPSTREAM_FRACTION  1.000000000000E+000 
    36 INFLOW  0.000000000000E+000 
    36 RAINFALL  0.000000000000E+000 
    36 EVAPORATION  0.000000000000E+000 
    36 RUNOFF  0.000000000000E+000 
    36 MANNING  3.000000000000E-002 

    37 STATUS ACTIVE
    37 UPSTREAM_FRACTION  1.000000000000E+000 
    37 INFLOW  0.000000000000E+000 
    37 RAINFALL  0.000000000000E+000 
    37 EVAPORATION  0.000000000000E+000 
    37 RUNOFF  0.000000000000E+000 
    37 MANNING  3.000000000000E-002 

    38 STATUS ACTIVE
    38 UPSTREAM_FRACTION  1.000000000000E+000 
    38 INFLOW  0.000000000000E+000 
    38 RAINFALL  0.000000000000E+000 
    38 EVAPORATION  0.000000000000E+000 
    38 RUNOFF  0.000000000000E+000 
    38 MANNING  3.000000000000E-002 

    38 AUXILIARY  Chem  0.000000000000E+000 
END PERIOD 

