# FMI6 file created on 10/3/2022 by ModelMuse version 5.0.0.28.
BEGIN OPTIONS
    SAVE_FLOWS
  FLOW_IMBALANCE_CORRECTION
END OPTIONS

BEGIN PACKAGEDATA
  GWFBUDGET FILEIN SftTimeSeries.cbc
  GWFHEAD FILEIN SftTimeSeries.bhd
  GWFMOVER FILEIN SftTimeSeries.mvr_budget
  LAK-1 FILEIN SftTimeSeries.lk_bud
  SFR-1 FILEIN SftTimeSeries.sfr_budget
END PACKAGEDATA

