BEGIN OPTIONS
  PRINT_INPUT
END OPTIONS

BEGIN TIMING
  TDIS6 'SftTimeSeries.Chem.tdis'
END TIMING

BEGIN MODELS
  GWT6 'SftTimeSeries.Chem.Gwt_nam' 'Chem'
END MODELS

BEGIN EXCHANGES
END EXCHANGES

BEGIN SOLUTIONGROUP     1
  MXITER     1
  IMS6 'SftTimeSeries.Chem.ims' 'Chem' 
END SOLUTIONGROUP

