# CHD: Time-Variant Specified-Head package file created on 10/3/2022 by ModelMuse version 5.0.0.28.
BEGIN OPTIONS
    AUXILIARY IFACE Chem
    BOUNDNAMES
    PRINT_INPUT
    SAVE_FLOWS
END OPTIONS

BEGIN DIMENSIONS
  MAXBOUND   322
END DIMENSIONS

BEGIN PERIOD      1
     1     1     4  5.000000000000E+001      0  0.000000000000E+000  'Chd_Layer_1_and_2_North'  # Data Set 6: Layer Row Column Shead IFACE Chem boundname
     2     1     4  5.000000000000E+001      0  0.000000000000E+000  'Chd_Layer_1_and_2_North'  # Data Set 6: Layer Row Column Shead IFACE Chem boundname
     1     1     5  5.000000000000E+001      0  0.000000000000E+000  'Chd_Layer_1_and_2_North'  # Data Set 6: Layer Row Column Shead IFACE Chem boundname
     2     1     5  5.000000000000E+001      0  0.000000000000E+000  'Chd_Layer_1_and_2_North'  # Data Set 6: Layer Row Column Shead IFACE Chem boundname
     1     1     6  5.000000000000E+001      0  0.000000000000E+000  'Chd_Layer_1_and_2_North'  # Data Set 6: Layer Row Column Shead IFACE Chem boundname
     2     1     6  5.000000000000E+001      0  0.000000000000E+000  'Chd_Layer_1_and_2_North'  # Data Set 6: Layer Row Column Shead IFACE Chem boundname
     1     1     7  5.000000000000E+001      0  0.000000000000E+000  'Chd_Layer_1_and_2_North'  # Data Set 6: Layer Row Column Shead IFACE Chem boundname
     2     1     7  5.000000000000E+001      0  0.000000000000E+000  'Chd_Layer_1_and_2_North'  # Data Set 6: Layer Row Column Shead IFACE Chem boundname
     1     1     8  5.000000000000E+001      0  0.000000000000E+000  'Chd_Layer_1_and_2_North'  # Data Set 6: Layer Row Column Shead IFACE Chem boundname
     2     1     8  5.000000000000E+001      0  0.000000000000E+000  'Chd_Layer_1_and_2_North'  # Data Set 6: Layer Row Column Shead IFACE Chem boundname
     1     1     9  5.000000000000E+001      0  0.000000000000E+000  'Chd_Layer_1_and_2_North'  # Data Set 6: Layer Row Column Shead IFACE Chem boundname
     2     1     9  5.000000000000E+001      0  0.000000000000E+000  'Chd_Layer_1_and_2_North'  # Data Set 6: Layer Row Column Shead IFACE Chem boundname
     1     1    10  5.000000000000E+001      0  0.000000000000E+000  'Chd_Layer_1_and_2_North'  # Data Set 6: Layer Row Column Shead IFACE Chem boundname
     2     1    10  5.000000000000E+001      0  0.000000000000E+000  'Chd_Layer_1_and_2_North'  # Data Set 6: Layer Row Column Shead IFACE Chem boundname
     1     1    11  5.000000000000E+001      0  0.000000000000E+000  'Chd_Layer_1_and_2_North'  # Data Set 6: Layer Row Column Shead IFACE Chem boundname
     2     1    11  5.000000000000E+001      0  0.000000000000E+000  'Chd_Layer_1_and_2_North'  # Data Set 6: Layer Row Column Shead IFACE Chem boundname
     1     1    12  5.010000000000E+001      0  5.000000000000E+002  'Chd_Layer_1_and_2_North'  # Data Set 6: Layer Row Column Shead IFACE Chem boundname
     2     1    12  5.010000000000E+001      0  5.000000000000E+002  'Chd_Layer_1_and_2_North'  # Data Set 6: Layer Row Column Shead IFACE Chem boundname
     1     1    13  5.015000000000E+001      0  5.000000000000E+002  'Chd_Layer_1_and_2_North'  # Data Set 6: Layer Row Column Shead IFACE Chem boundname
     2     1    13  5.015000000000E+001      0  5.000000000000E+002  'Chd_Layer_1_and_2_North'  # Data Set 6: Layer Row Column Shead IFACE Chem boundname
     1     1    14  5.015000000000E+001      0  5.000000000000E+002  'Chd_Layer_1_and_2_North'  # Data Set 6: Layer Row Column Shead IFACE Chem boundname
     2     1    14  5.015000000000E+001      0  5.000000000000E+002  'Chd_Layer_1_and_2_North'  # Data Set 6: Layer Row Column Shead IFACE Chem boundname
     1     1    15  5.010000000000E+001      0  5.000000000000E+002  'Chd_Layer_1_and_2_North'  # Data Set 6: Layer Row Column Shead IFACE Chem boundname
     2     1    15  5.010000000000E+001      0  5.000000000000E+002  'Chd_Layer_1_and_2_North'  # Data Set 6: Layer Row Column Shead IFACE Chem boundname
     1     1    16  5.000000000000E+001      0  0.000000000000E+000  'Chd_Layer_1_and_2_North'  # Data Set 6: Layer Row Column Shead IFACE Chem boundname
     2     1    16  5.000000000000E+001      0  0.000000000000E+000  'Chd_Layer_1_and_2_North'  # Data Set 6: Layer Row Column Shead IFACE Chem boundname
     1     1    17  5.000000000000E+001      0  0.000000000000E+000  'Chd_Layer_1_and_2_North'  # Data Set 6: Layer Row Column Shead IFACE Chem boundname
     2     1    17  5.000000000000E+001      0  0.000000000000E+000  'Chd_Layer_1_and_2_North'  # Data Set 6: Layer Row Column Shead IFACE Chem boundname
     1     1    18  5.000000000000E+001      0  0.000000000000E+000  'Chd_Layer_1_and_2_North'  # Data Set 6: Layer Row Column Shead IFACE Chem boundname
     2     1    18  5.000000000000E+001      0  0.000000000000E+000  'Chd_Layer_1_and_2_North'  # Data Set 6: Layer Row Column Shead IFACE Chem boundname
     1     1    19  5.000000000000E+001      0  0.000000000000E+000  'Chd_Layer_1_and_2_North'  # Data Set 6: Layer Row Column Shead IFACE Chem boundname
     2     1    19  5.000000000000E+001      0  0.000000000000E+000  'Chd_Layer_1_and_2_North'  # Data Set 6: Layer Row Column Shead IFACE Chem boundname
     1     1    20  5.000000000000E+001      0  0.000000000000E+000  'Chd_Layer_1_and_2_North'  # Data Set 6: Layer Row Column Shead IFACE Chem boundname
     2     1    20  5.000000000000E+001      0  0.000000000000E+000  'Chd_Layer_1_and_2_North'  # Data Set 6: Layer Row Column Shead IFACE Chem boundname
     1     1    21  5.000000000000E+001      0  0.000000000000E+000  'Chd_Layer_1_and_2_North'  # Data Set 6: Layer Row Column Shead IFACE Chem boundname
     2     1    21  5.000000000000E+001      0  0.000000000000E+000  'Chd_Layer_1_and_2_North'  # Data Set 6: Layer Row Column Shead IFACE Chem boundname
     1    33     1  2.800000000000E+001      0  0.000000000000E+000  'Chd_South'  # Data Set 6: Layer Row Column Shead IFACE Chem boundname
     2    33     1  2.800000000000E+001      0  0.000000000000E+000  'Chd_South'  # Data Set 6: Layer Row Column Shead IFACE Chem boundname
     3    33     1  2.800000000000E+001      0  0.000000000000E+000  'Chd_South'  # Data Set 6: Layer Row Column Shead IFACE Chem boundname
     4    33     1  2.800000000000E+001      0  0.000000000000E+000  'Chd_South'  # Data Set 6: Layer Row Column Shead IFACE Chem boundname
     5    33     1  2.800000000000E+001      0  0.000000000000E+000  'Chd_South'  # Data Set 6: Layer Row Column Shead IFACE Chem boundname
     6    33     1  2.800000000000E+001      0  0.000000000000E+000  'Chd_South'  # Data Set 6: Layer Row Column Shead IFACE Chem boundname
     7    33     1  2.800000000000E+001      0  0.000000000000E+000  'Chd_South'  # Data Set 6: Layer Row Column Shead IFACE Chem boundname
     8    33     1  2.800000000000E+001      0  0.000000000000E+000  'Chd_South'  # Data Set 6: Layer Row Column Shead IFACE Chem boundname
     1    33     2  2.800000000000E+001      0  0.000000000000E+000  'Chd_South'  # Data Set 6: Layer Row Column Shead IFACE Chem boundname
     2    33     2  2.800000000000E+001      0  0.000000000000E+000  'Chd_South'  # Data Set 6: Layer Row Column Shead IFACE Chem boundname
     3    33     2  2.800000000000E+001      0  0.000000000000E+000  'Chd_South'  # Data Set 6: Layer Row Column Shead IFACE Chem boundname
     4    33     2  2.800000000000E+001      0  0.000000000000E+000  'Chd_South'  # Data Set 6: Layer Row Column Shead IFACE Chem boundname
     5    33     2  2.800000000000E+001      0  0.000000000000E+000  'Chd_South'  # Data Set 6: Layer Row Column Shead IFACE Chem boundname
     6    33     2  2.800000000000E+001      0  0.000000000000E+000  'Chd_South'  # Data Set 6: Layer Row Column Shead IFACE Chem boundname
     7    33     2  2.800000000000E+001      0  0.000000000000E+000  'Chd_South'  # Data Set 6: Layer Row Column Shead IFACE Chem boundname
     8    33     2  2.800000000000E+001      0  0.000000000000E+000  'Chd_South'  # Data Set 6: Layer Row Column Shead IFACE Chem boundname
     1    33     3  2.800000000000E+001      0  0.000000000000E+000  'Chd_South'  # Data Set 6: Layer Row Column Shead IFACE Chem boundname
     2    33     3  2.800000000000E+001      0  0.000000000000E+000  'Chd_South'  # Data Set 6: Layer Row Column Shead IFACE Chem boundname
     3    33     3  2.800000000000E+001      0  0.000000000000E+000  'Chd_South'  # Data Set 6: Layer Row Column Shead IFACE Chem boundname
     4    33     3  2.800000000000E+001      0  0.000000000000E+000  'Chd_South'  # Data Set 6: Layer Row Column Shead IFACE Chem boundname
     5    33     3  2.800000000000E+001      0  0.000000000000E+000  'Chd_South'  # Data Set 6: Layer Row Column Shead IFACE Chem boundname
     6    33     3  2.800000000000E+001      0  0.000000000000E+000  'Chd_South'  # Data Set 6: Layer Row Column Shead IFACE Chem boundname
     7    33     3  2.800000000000E+001      0  0.000000000000E+000  'Chd_South'  # Data Set 6: Layer Row Column Shead IFACE Chem boundname
     8    33     3  2.800000000000E+001      0  0.000000000000E+000  'Chd_South'  # Data Set 6: Layer Row Column Shead IFACE Chem boundname
     1    33     4  2.800000000000E+001      0  0.000000000000E+000  'Chd_South'  # Data Set 6: Layer Row Column Shead IFACE Chem boundname
     2    33     4  2.800000000000E+001      0  0.000000000000E+000  'Chd_South'  # Data Set 6: Layer Row Column Shead IFACE Chem boundname
     3    33     4  2.800000000000E+001      0  0.000000000000E+000  'Chd_South'  # Data Set 6: Layer Row Column Shead IFACE Chem boundname
     4    33     4  2.800000000000E+001      0  0.000000000000E+000  'Chd_South'  # Data Set 6: Layer Row Column Shead IFACE Chem boundname
     5    33     4  2.800000000000E+001      0  0.000000000000E+000  'Chd_South'  # Data Set 6: Layer Row Column Shead IFACE Chem boundname
     6    33     4  2.800000000000E+001      0  0.000000000000E+000  'Chd_South'  # Data Set 6: Layer Row Column Shead IFACE Chem boundname
     7    33     4  2.800000000000E+001      0  0.000000000000E+000  'Chd_South'  # Data Set 6: Layer Row Column Shead IFACE Chem boundname
     8    33     4  2.800000000000E+001      0  0.000000000000E+000  'Chd_South'  # Data Set 6: Layer Row Column Shead IFACE Chem boundname
     1    33     5  2.800000000000E+001      0  0.000000000000E+000  'Chd_South'  # Data Set 6: Layer Row Column Shead IFACE Chem boundname
     2    33     5  2.800000000000E+001      0  0.000000000000E+000  'Chd_South'  # Data Set 6: Layer Row Column Shead IFACE Chem boundname
     3    33     5  2.800000000000E+001      0  0.000000000000E+000  'Chd_South'  # Data Set 6: Layer Row Column Shead IFACE Chem boundname
     4    33     5  2.800000000000E+001      0  0.000000000000E+000  'Chd_South'  # Data Set 6: Layer Row Column Shead IFACE Chem boundname
     5    33     5  2.800000000000E+001      0  0.000000000000E+000  'Chd_South'  # Data Set 6: Layer Row Column Shead IFACE Chem boundname
     6    33     5  2.800000000000E+001      0  0.000000000000E+000  'Chd_South'  # Data Set 6: Layer Row Column Shead IFACE Chem boundname
     7    33     5  2.800000000000E+001      0  0.000000000000E+000  'Chd_South'  # Data Set 6: Layer Row Column Shead IFACE Chem boundname
     8    33     5  2.800000000000E+001      0  0.000000000000E+000  'Chd_South'  # Data Set 6: Layer Row Column Shead IFACE Chem boundname
     1    33     6  2.800000000000E+001      0  0.000000000000E+000  'Chd_South'  # Data Set 6: Layer Row Column Shead IFACE Chem boundname
     2    33     6  2.800000000000E+001      0  0.000000000000E+000  'Chd_South'  # Data Set 6: Layer Row Column Shead IFACE Chem boundname
     3    33     6  2.800000000000E+001      0  0.000000000000E+000  'Chd_South'  # Data Set 6: Layer Row Column Shead IFACE Chem boundname
     4    33     6  2.800000000000E+001      0  0.000000000000E+000  'Chd_South'  # Data Set 6: Layer Row Column Shead IFACE Chem boundname
     5    33     6  2.800000000000E+001      0  0.000000000000E+000  'Chd_South'  # Data Set 6: Layer Row Column Shead IFACE Chem boundname
     6    33     6  2.800000000000E+001      0  0.000000000000E+000  'Chd_South'  # Data Set 6: Layer Row Column Shead IFACE Chem boundname
     7    33     6  2.800000000000E+001      0  0.000000000000E+000  'Chd_South'  # Data Set 6: Layer Row Column Shead IFACE Chem boundname
     8    33     6  2.800000000000E+001      0  0.000000000000E+000  'Chd_South'  # Data Set 6: Layer Row Column Shead IFACE Chem boundname
     1    33     7  2.800000000000E+001      0  0.000000000000E+000  'Chd_South'  # Data Set 6: Layer Row Column Shead IFACE Chem boundname
     2    33     7  2.800000000000E+001      0  0.000000000000E+000  'Chd_South'  # Data Set 6: Layer Row Column Shead IFACE Chem boundname
     3    33     7  2.800000000000E+001      0  0.000000000000E+000  'Chd_South'  # Data Set 6: Layer Row Column Shead IFACE Chem boundname
     4    33     7  2.800000000000E+001      0  0.000000000000E+000  'Chd_South'  # Data Set 6: Layer Row Column Shead IFACE Chem boundname
     5    33     7  2.800000000000E+001      0  0.000000000000E+000  'Chd_South'  # Data Set 6: Layer Row Column Shead IFACE Chem boundname
     6    33     7  2.800000000000E+001      0  0.000000000000E+000  'Chd_South'  # Data Set 6: Layer Row Column Shead IFACE Chem boundname
     7    33     7  2.800000000000E+001      0  0.000000000000E+000  'Chd_South'  # Data Set 6: Layer Row Column Shead IFACE Chem boundname
     8    33     7  2.800000000000E+001      0  0.000000000000E+000  'Chd_South'  # Data Set 6: Layer Row Column Shead IFACE Chem boundname
     1    34     8  2.800000000000E+001      0  0.000000000000E+000  'Chd_South'  # Data Set 6: Layer Row Column Shead IFACE Chem boundname
     2    34     8  2.800000000000E+001      0  0.000000000000E+000  'Chd_South'  # Data Set 6: Layer Row Column Shead IFACE Chem boundname
     3    34     8  2.800000000000E+001      0  0.000000000000E+000  'Chd_South'  # Data Set 6: Layer Row Column Shead IFACE Chem boundname
     4    34     8  2.800000000000E+001      0  0.000000000000E+000  'Chd_South'  # Data Set 6: Layer Row Column Shead IFACE Chem boundname
     5    34     8  2.800000000000E+001      0  0.000000000000E+000  'Chd_South'  # Data Set 6: Layer Row Column Shead IFACE Chem boundname
     6    34     8  2.800000000000E+001      0  0.000000000000E+000  'Chd_South'  # Data Set 6: Layer Row Column Shead IFACE Chem boundname
     7    34     8  2.800000000000E+001      0  0.000000000000E+000  'Chd_South'  # Data Set 6: Layer Row Column Shead IFACE Chem boundname
     8    34     8  2.800000000000E+001      0  0.000000000000E+000  'Chd_South'  # Data Set 6: Layer Row Column Shead IFACE Chem boundname
     1    34     9  2.800000000000E+001      0  0.000000000000E+000  'Chd_South'  # Data Set 6: Layer Row Column Shead IFACE Chem boundname
     2    34     9  2.800000000000E+001      0  0.000000000000E+000  'Chd_South'  # Data Set 6: Layer Row Column Shead IFACE Chem boundname
     3    34     9  2.800000000000E+001      0  0.000000000000E+000  'Chd_South'  # Data Set 6: Layer Row Column Shead IFACE Chem boundname
     4    34     9  2.800000000000E+001      0  0.000000000000E+000  'Chd_South'  # Data Set 6: Layer Row Column Shead IFACE Chem boundname
     5    34     9  2.800000000000E+001      0  0.000000000000E+000  'Chd_South'  # Data Set 6: Layer Row Column Shead IFACE Chem boundname
     6    34     9  2.800000000000E+001      0  0.000000000000E+000  'Chd_South'  # Data Set 6: Layer Row Column Shead IFACE Chem boundname
     7    34     9  2.800000000000E+001      0  0.000000000000E+000  'Chd_South'  # Data Set 6: Layer Row Column Shead IFACE Chem boundname
     8    34     9  2.800000000000E+001      0  0.000000000000E+000  'Chd_South'  # Data Set 6: Layer Row Column Shead IFACE Chem boundname
     1    34    10  2.800000000000E+001      0  0.000000000000E+000  'Chd_South'  # Data Set 6: Layer Row Column Shead IFACE Chem boundname
     2    34    10  2.800000000000E+001      0  0.000000000000E+000  'Chd_South'  # Data Set 6: Layer Row Column Shead IFACE Chem boundname
     3    34    10  2.800000000000E+001      0  0.000000000000E+000  'Chd_South'  # Data Set 6: Layer Row Column Shead IFACE Chem boundname
     4    34    10  2.800000000000E+001      0  0.000000000000E+000  'Chd_South'  # Data Set 6: Layer Row Column Shead IFACE Chem boundname
     5    34    10  2.800000000000E+001      0  0.000000000000E+000  'Chd_South'  # Data Set 6: Layer Row Column Shead IFACE Chem boundname
     6    34    10  2.800000000000E+001      0  0.000000000000E+000  'Chd_South'  # Data Set 6: Layer Row Column Shead IFACE Chem boundname
     7    34    10  2.800000000000E+001      0  0.000000000000E+000  'Chd_South'  # Data Set 6: Layer Row Column Shead IFACE Chem boundname
     8    34    10  2.800000000000E+001      0  0.000000000000E+000  'Chd_South'  # Data Set 6: Layer Row Column Shead IFACE Chem boundname
     1    34    11  2.800000000000E+001      0  0.000000000000E+000  'Chd_South'  # Data Set 6: Layer Row Column Shead IFACE Chem boundname
     2    34    11  2.800000000000E+001      0  0.000000000000E+000  'Chd_South'  # Data Set 6: Layer Row Column Shead IFACE Chem boundname
     3    34    11  2.800000000000E+001      0  0.000000000000E+000  'Chd_South'  # Data Set 6: Layer Row Column Shead IFACE Chem boundname
     4    34    11  2.800000000000E+001      0  0.000000000000E+000  'Chd_South'  # Data Set 6: Layer Row Column Shead IFACE Chem boundname
     5    34    11  2.800000000000E+001      0  0.000000000000E+000  'Chd_South'  # Data Set 6: Layer Row Column Shead IFACE Chem boundname
     6    34    11  2.800000000000E+001      0  0.000000000000E+000  'Chd_South'  # Data Set 6: Layer Row Column Shead IFACE Chem boundname
     7    34    11  2.800000000000E+001      0  0.000000000000E+000  'Chd_South'  # Data Set 6: Layer Row Column Shead IFACE Chem boundname
     8    34    11  2.800000000000E+001      0  0.000000000000E+000  'Chd_South'  # Data Set 6: Layer Row Column Shead IFACE Chem boundname
     1    34    12  2.800000000000E+001      0  0.000000000000E+000  'Chd_South'  # Data Set 6: Layer Row Column Shead IFACE Chem boundname
     2    34    12  2.800000000000E+001      0  0.000000000000E+000  'Chd_South'  # Data Set 6: Layer Row Column Shead IFACE Chem boundname
     3    34    12  2.800000000000E+001      0  0.000000000000E+000  'Chd_South'  # Data Set 6: Layer Row Column Shead IFACE Chem boundname
     4    34    12  2.800000000000E+001      0  0.000000000000E+000  'Chd_South'  # Data Set 6: Layer Row Column Shead IFACE Chem boundname
     5    34    12  2.800000000000E+001      0  0.000000000000E+000  'Chd_South'  # Data Set 6: Layer Row Column Shead IFACE Chem boundname
     6    34    12  2.800000000000E+001      0  0.000000000000E+000  'Chd_South'  # Data Set 6: Layer Row Column Shead IFACE Chem boundname
     7    34    12  2.800000000000E+001      0  0.000000000000E+000  'Chd_South'  # Data Set 6: Layer Row Column Shead IFACE Chem boundname
     8    34    12  2.800000000000E+001      0  0.000000000000E+000  'Chd_South'  # Data Set 6: Layer Row Column Shead IFACE Chem boundname
     1    34    13  2.800000000000E+001      0  0.000000000000E+000  'Chd_South'  # Data Set 6: Layer Row Column Shead IFACE Chem boundname
     2    34    13  2.800000000000E+001      0  0.000000000000E+000  'Chd_South'  # Data Set 6: Layer Row Column Shead IFACE Chem boundname
     3    34    13  2.800000000000E+001      0  0.000000000000E+000  'Chd_South'  # Data Set 6: Layer Row Column Shead IFACE Chem boundname
     4    34    13  2.800000000000E+001      0  0.000000000000E+000  'Chd_South'  # Data Set 6: Layer Row Column Shead IFACE Chem boundname
     5    34    13  2.800000000000E+001      0  0.000000000000E+000  'Chd_South'  # Data Set 6: Layer Row Column Shead IFACE Chem boundname
     6    34    13  2.800000000000E+001      0  0.000000000000E+000  'Chd_South'  # Data Set 6: Layer Row Column Shead IFACE Chem boundname
     7    34    13  2.800000000000E+001      0  0.000000000000E+000  'Chd_South'  # Data Set 6: Layer Row Column Shead IFACE Chem boundname
     8    34    13  2.800000000000E+001      0  0.000000000000E+000  'Chd_South'  # Data Set 6: Layer Row Column Shead IFACE Chem boundname
     1    35    14  2.800000000000E+001      0  0.000000000000E+000  'Chd_South'  # Data Set 6: Layer Row Column Shead IFACE Chem boundname
     2    35    14  2.800000000000E+001      0  0.000000000000E+000  'Chd_South'  # Data Set 6: Layer Row Column Shead IFACE Chem boundname
     3    35    14  2.800000000000E+001      0  0.000000000000E+000  'Chd_South'  # Data Set 6: Layer Row Column Shead IFACE Chem boundname
     4    35    14  2.800000000000E+001      0  0.000000000000E+000  'Chd_South'  # Data Set 6: Layer Row Column Shead IFACE Chem boundname
     5    35    14  2.800000000000E+001      0  0.000000000000E+000  'Chd_South'  # Data Set 6: Layer Row Column Shead IFACE Chem boundname
     6    35    14  2.800000000000E+001      0  0.000000000000E+000  'Chd_South'  # Data Set 6: Layer Row Column Shead IFACE Chem boundname
     7    35    14  2.800000000000E+001      0  0.000000000000E+000  'Chd_South'  # Data Set 6: Layer Row Column Shead IFACE Chem boundname
     8    35    14  2.800000000000E+001      0  0.000000000000E+000  'Chd_South'  # Data Set 6: Layer Row Column Shead IFACE Chem boundname
     1    35    16  2.800000000000E+001      0  0.000000000000E+000  'Chd_South'  # Data Set 6: Layer Row Column Shead IFACE Chem boundname
     2    35    16  2.800000000000E+001      0  0.000000000000E+000  'Chd_South'  # Data Set 6: Layer Row Column Shead IFACE Chem boundname
     3    35    16  2.800000000000E+001      0  0.000000000000E+000  'Chd_South'  # Data Set 6: Layer Row Column Shead IFACE Chem boundname
     4    35    16  2.800000000000E+001      0  0.000000000000E+000  'Chd_South'  # Data Set 6: Layer Row Column Shead IFACE Chem boundname
     5    35    16  2.800000000000E+001      0  0.000000000000E+000  'Chd_South'  # Data Set 6: Layer Row Column Shead IFACE Chem boundname
     6    35    16  2.800000000000E+001      0  0.000000000000E+000  'Chd_South'  # Data Set 6: Layer Row Column Shead IFACE Chem boundname
     7    35    16  2.800000000000E+001      0  0.000000000000E+000  'Chd_South'  # Data Set 6: Layer Row Column Shead IFACE Chem boundname
     8    35    16  2.800000000000E+001      0  0.000000000000E+000  'Chd_South'  # Data Set 6: Layer Row Column Shead IFACE Chem boundname
     1    35    17  2.800000000000E+001      0  0.000000000000E+000  'Chd_South'  # Data Set 6: Layer Row Column Shead IFACE Chem boundname
     2    35    17  2.800000000000E+001      0  0.000000000000E+000  'Chd_South'  # Data Set 6: Layer Row Column Shead IFACE Chem boundname
     3    35    17  2.800000000000E+001      0  0.000000000000E+000  'Chd_South'  # Data Set 6: Layer Row Column Shead IFACE Chem boundname
     4    35    17  2.800000000000E+001      0  0.000000000000E+000  'Chd_South'  # Data Set 6: Layer Row Column Shead IFACE Chem boundname
     5    35    17  2.800000000000E+001      0  0.000000000000E+000  'Chd_South'  # Data Set 6: Layer Row Column Shead IFACE Chem boundname
     6    35    17  2.800000000000E+001      0  0.000000000000E+000  'Chd_South'  # Data Set 6: Layer Row Column Shead IFACE Chem boundname
     7    35    17  2.800000000000E+001      0  0.000000000000E+000  'Chd_South'  # Data Set 6: Layer Row Column Shead IFACE Chem boundname
     8    35    17  2.800000000000E+001      0  0.000000000000E+000  'Chd_South'  # Data Set 6: Layer Row Column Shead IFACE Chem boundname
     1    35    18  2.800000000000E+001      0  0.000000000000E+000  'Chd_South'  # Data Set 6: Layer Row Column Shead IFACE Chem boundname
     2    35    18  2.800000000000E+001      0  0.000000000000E+000  'Chd_South'  # Data Set 6: Layer Row Column Shead IFACE Chem boundname
     3    35    18  2.800000000000E+001      0  0.000000000000E+000  'Chd_South'  # Data Set 6: Layer Row Column Shead IFACE Chem boundname
     4    35    18  2.800000000000E+001      0  0.000000000000E+000  'Chd_South'  # Data Set 6: Layer Row Column Shead IFACE Chem boundname
     5    35    18  2.800000000000E+001      0  0.000000000000E+000  'Chd_South'  # Data Set 6: Layer Row Column Shead IFACE Chem boundname
     6    35    18  2.800000000000E+001      0  0.000000000000E+000  'Chd_South'  # Data Set 6: Layer Row Column Shead IFACE Chem boundname
     7    35    18  2.800000000000E+001      0  0.000000000000E+000  'Chd_South'  # Data Set 6: Layer Row Column Shead IFACE Chem boundname
     8    35    18  2.800000000000E+001      0  0.000000000000E+000  'Chd_South'  # Data Set 6: Layer Row Column Shead IFACE Chem boundname
     1    35    19  2.800000000000E+001      0  0.000000000000E+000  'Chd_South'  # Data Set 6: Layer Row Column Shead IFACE Chem boundname
     2    35    19  2.800000000000E+001      0  0.000000000000E+000  'Chd_South'  # Data Set 6: Layer Row Column Shead IFACE Chem boundname
     3    35    19  2.800000000000E+001      0  0.000000000000E+000  'Chd_South'  # Data Set 6: Layer Row Column Shead IFACE Chem boundname
     4    35    19  2.800000000000E+001      0  0.000000000000E+000  'Chd_South'  # Data Set 6: Layer Row Column Shead IFACE Chem boundname
     5    35    19  2.800000000000E+001      0  0.000000000000E+000  'Chd_South'  # Data Set 6: Layer Row Column Shead IFACE Chem boundname
     6    35    19  2.800000000000E+001      0  0.000000000000E+000  'Chd_South'  # Data Set 6: Layer Row Column Shead IFACE Chem boundname
     7    35    19  2.800000000000E+001      0  0.000000000000E+000  'Chd_South'  # Data Set 6: Layer Row Column Shead IFACE Chem boundname
     8    35    19  2.800000000000E+001      0  0.000000000000E+000  'Chd_South'  # Data Set 6: Layer Row Column Shead IFACE Chem boundname
     1    35    20  2.800000000000E+001      0  0.000000000000E+000  'Chd_South'  # Data Set 6: Layer Row Column Shead IFACE Chem boundname
     2    35    20  2.800000000000E+001      0  0.000000000000E+000  'Chd_South'  # Data Set 6: Layer Row Column Shead IFACE Chem boundname
     3    35    20  2.800000000000E+001      0  0.000000000000E+000  'Chd_South'  # Data Set 6: Layer Row Column Shead IFACE Chem boundname
     4    35    20  2.800000000000E+001      0  0.000000000000E+000  'Chd_South'  # Data Set 6: Layer Row Column Shead IFACE Chem boundname
     5    35    20  2.800000000000E+001      0  0.000000000000E+000  'Chd_South'  # Data Set 6: Layer Row Column Shead IFACE Chem boundname
     6    35    20  2.800000000000E+001      0  0.000000000000E+000  'Chd_South'  # Data Set 6: Layer Row Column Shead IFACE Chem boundname
     7    35    20  2.800000000000E+001      0  0.000000000000E+000  'Chd_South'  # Data Set 6: Layer Row Column Shead IFACE Chem boundname
     8    35    20  2.800000000000E+001      0  0.000000000000E+000  'Chd_South'  # Data Set 6: Layer Row Column Shead IFACE Chem boundname
     1    36    21  2.800000000000E+001      0  0.000000000000E+000  'Chd_South'  # Data Set 6: Layer Row Column Shead IFACE Chem boundname
     2    36    21  2.800000000000E+001      0  0.000000000000E+000  'Chd_South'  # Data Set 6: Layer Row Column Shead IFACE Chem boundname
     3    36    21  2.800000000000E+001      0  0.000000000000E+000  'Chd_South'  # Data Set 6: Layer Row Column Shead IFACE Chem boundname
     4    36    21  2.800000000000E+001      0  0.000000000000E+000  'Chd_South'  # Data Set 6: Layer Row Column Shead IFACE Chem boundname
     5    36    21  2.800000000000E+001      0  0.000000000000E+000  'Chd_South'  # Data Set 6: Layer Row Column Shead IFACE Chem boundname
     6    36    21  2.800000000000E+001      0  0.000000000000E+000  'Chd_South'  # Data Set 6: Layer Row Column Shead IFACE Chem boundname
     7    36    21  2.800000000000E+001      0  0.000000000000E+000  'Chd_South'  # Data Set 6: Layer Row Column Shead IFACE Chem boundname
     8    36    21  2.800000000000E+001      0  0.000000000000E+000  'Chd_South'  # Data Set 6: Layer Row Column Shead IFACE Chem boundname
     1    36    22  2.800000000000E+001      0  0.000000000000E+000  'Chd_South'  # Data Set 6: Layer Row Column Shead IFACE Chem boundname
     2    36    22  2.800000000000E+001      0  0.000000000000E+000  'Chd_South'  # Data Set 6: Layer Row Column Shead IFACE Chem boundname
     3    36    22  2.800000000000E+001      0  0.000000000000E+000  'Chd_South'  # Data Set 6: Layer Row Column Shead IFACE Chem boundname
     4    36    22  2.800000000000E+001      0  0.000000000000E+000  'Chd_South'  # Data Set 6: Layer Row Column Shead IFACE Chem boundname
     5    36    22  2.800000000000E+001      0  0.000000000000E+000  'Chd_South'  # Data Set 6: Layer Row Column Shead IFACE Chem boundname
     6    36    22  2.800000000000E+001      0  0.000000000000E+000  'Chd_South'  # Data Set 6: Layer Row Column Shead IFACE Chem boundname
     7    36    22  2.800000000000E+001      0  0.000000000000E+000  'Chd_South'  # Data Set 6: Layer Row Column Shead IFACE Chem boundname
     8    36    22  2.800000000000E+001      0  0.000000000000E+000  'Chd_South'  # Data Set 6: Layer Row Column Shead IFACE Chem boundname
     1    36    23  2.800000000000E+001      0  0.000000000000E+000  'Chd_South'  # Data Set 6: Layer Row Column Shead IFACE Chem boundname
     2    36    23  2.800000000000E+001      0  0.000000000000E+000  'Chd_South'  # Data Set 6: Layer Row Column Shead IFACE Chem boundname
     3    36    23  2.800000000000E+001      0  0.000000000000E+000  'Chd_South'  # Data Set 6: Layer Row Column Shead IFACE Chem boundname
     4    36    23  2.800000000000E+001      0  0.000000000000E+000  'Chd_South'  # Data Set 6: Layer Row Column Shead IFACE Chem boundname