# Name File for MODFLOW created on 12/14/2015 by ModelMuse
LIST             11 Simple.lst REPLACE
DATA(BINARY)      9 Simple.cbc REPLACE
DIS              12 Simple.dis OLD
BAS6             13 Simple.bas OLD
OC               39 Simple.oc OLD
DATA             37 Simple.fhd REPLACE
DATA             38 Simple.fdn REPLACE
PCG              18 Simple.pcg OLD
LPF              14 Simple.lpf OLD
CHD              17 Simple.chd OLD
