# Name File for MODFLOW created on 2/1/2017 by ModelMuse Version 3.8.1.27
LIST             11 ..\..\output\output.SkipTest\SkipTest.lst REPLACE
DATA(BINARY)      9 ..\..\output\output.SkipTest\SkipTest.cbc REPLACE

#Files generated outside of ModelMuse
BCF6 70 ..\..\model\model.SkipTest\bcf2ss.bc6

#Files generated by ModelMuse
DIS              12 ..\..\model\model.SkipTest\SkipTest.dis OLD
BAS6             13 ..\..\model\model.SkipTest\SkipTest.bas OLD
OC               39 ..\..\model\model.SkipTest\SkipTest.oc OLD
DATA             37 ..\..\output\output.SkipTest\SkipTest.fhd REPLACE
DATA             38 ..\..\output\output.SkipTest\SkipTest.fdn REPLACE
PCG              18 ..\..\model\model.SkipTest\SkipTest.pcg OLD
WEL              20 ..\..\model\model.SkipTest\SkipTest.wel OLD
RIV              21 ..\..\model\model.SkipTest\SkipTest.riv OLD
RCH              24 ..\..\model\model.SkipTest\SkipTest.rch OLD
