# Name File for MODFLOW created on 12/14/2015 by ModelMuse
LIST             11 SkipTest.lst REPLACE
DATA(BINARY)      9 SkipTest.cbc REPLACE

#Files generated outside of ModelMuse
BCF6 70 bcf2ss.bc6

#Files generated by ModelMuse
DIS              12 SkipTest.dis OLD
BAS6             13 SkipTest.bas OLD
OC               39 SkipTest.oc OLD
DATA             37 SkipTest.fhd REPLACE
DATA             38 SkipTest.fdn REPLACE
PCG              18 SkipTest.pcg OLD
WEL              20 SkipTest.wel OLD
RIV              21 SkipTest.riv OLD
RCH              24 SkipTest.rch OLD
