# Name File for MODFLOW created on 12/14/2015 by ModelMuse
LIST             11 SpeedTestBug2.lst REPLACE
DATA(BINARY)      9 SpeedTestBug2.cbc REPLACE
DIS              12 SpeedTestBug2.dis OLD
BAS6             13 SpeedTestBug2.bas OLD
OC               39 SpeedTestBug2.oc OLD
DATA             37 SpeedTestBug2.fhd REPLACE
DATA             38 SpeedTestBug2.fdn REPLACE
PCG              18 SpeedTestBug2.pcg OLD
LPF              14 SpeedTestBug2.lpf OLD
