# Name File for MODFLOW created on 2/1/2017 by ModelMuse Version 3.8.1.27
LIST             11 ..\..\output\output.SpeedTestBug2\SpeedTestBug2.lst REPLACE
DATA(BINARY)      9 ..\..\output\output.SpeedTestBug2\SpeedTestBug2.cbc REPLACE
DIS              12 ..\..\model\model.SpeedTestBug2\SpeedTestBug2.dis OLD
BAS6             13 ..\..\model\model.SpeedTestBug2\SpeedTestBug2.bas OLD
OC               39 ..\..\model\model.SpeedTestBug2\SpeedTestBug2.oc OLD
DATA             37 ..\..\output\output.SpeedTestBug2\SpeedTestBug2.fhd REPLACE
DATA             38 ..\..\output\output.SpeedTestBug2\SpeedTestBug2.fdn REPLACE
PCG              18 ..\..\model\model.SpeedTestBug2\SpeedTestBug2.pcg OLD
LPF              14 ..\..\model\model.SpeedTestBug2\SpeedTestBug2.lpf OLD
