# Name File for MODFLOW created on 2/1/2017 by ModelMuse Version 3.8.1.27
LIST             11 ..\..\output\output.streamLinkTest\streamLinkTest.lst REPLACE
DATA(BINARY)      9 ..\..\output\output.streamLinkTest\streamLinkTest.cbc REPLACE
DIS              12 ..\..\model\model.streamLinkTest\streamLinkTest.dis OLD
BAS6             13 ..\..\model\model.streamLinkTest\streamLinkTest.bas OLD
OC               39 ..\..\model\model.streamLinkTest\streamLinkTest.oc OLD
DATA             37 ..\..\output\output.streamLinkTest\streamLinkTest.fhd REPLACE
DATA             38 ..\..\output\output.streamLinkTest\streamLinkTest.fdn REPLACE
PCG              18 ..\..\model\model.streamLinkTest\streamLinkTest.pcg OLD
LPF              14 ..\..\model\model.streamLinkTest\streamLinkTest.lpf OLD
LAK              28 ..\..\model\model.streamLinkTest\streamLinkTest.lak OLD
SFR              29 ..\..\model\model.streamLinkTest\streamLinkTest.sfr OLD
