# Name File for MODFLOW created on 12/14/2015 by ModelMuse
LIST             11 streamLinkTest.lst REPLACE
DATA(BINARY)      9 streamLinkTest.cbc REPLACE
DIS              12 streamLinkTest.dis OLD
BAS6             13 streamLinkTest.bas OLD
OC               39 streamLinkTest.oc OLD
DATA             37 streamLinkTest.fhd REPLACE
DATA             38 streamLinkTest.fdn REPLACE
PCG              18 streamLinkTest.pcg OLD
LPF              14 streamLinkTest.lpf OLD
LAK              28 streamLinkTest.lak OLD
SFR              29 streamLinkTest.sfr OLD
