# Name File for MT3DMS created on 1/14/2014 by ModelMuse
LIST 16 StrFhbTobTest.mls
FTL 10 StrFhbTobTest.ftl
DATA 17 StrFhbTobTest.cnf
BTN 1 StrFhbTobTest.btn
DATA(BINARY) 201 StrFhbTobTest_abc.ucn
DATA 601 StrFhbTobTest_abc._mas
SSM 4 StrFhbTobTest.ssm
GCG 9 StrFhbTobTest.gcg
TOB 7 StrFhbTobTest.tob
DATA 22 StrFhbTobTest.mfx
DATA(BINARY) 23 StrFhbTobTest.pst
