# Name File for MODFLOW created on 5/18/2019 by ModelMuse Version 3.10.0.60
LIST             11 StrFhbTobTest.lst REPLACE
DATA(BINARY)      9 StrFhbTobTest.cbc REPLACE
DIS              12 StrFhbTobTest.dis OLD
BAS6             13 StrFhbTobTest.bas OLD
OC               39 StrFhbTobTest.oc OLD
DATA             37 StrFhbTobTest.fhd REPLACE
DATA             38 StrFhbTobTest.fdn REPLACE
PCG              18 StrFhbTobTest.pcg OLD
LPF              14 StrFhbTobTest.lpf OLD
LMT6            135 StrFhbTobTest.lmt OLD
STR             142 StrFhbTobTest.str OLD
DATA(BINARY)    143 StrFhbTobTest.str_flow REPLACE
STOB            144 StrFhbTobTest.ob_stob OLD
DATA            145 StrFhbTobTest.stob_out REPLACE
FHB             146 StrFhbTobTest.fhb OLD
