# Name File for MODFLOW created on 5/18/2019 by ModelMuse Version 3.10.0.60
LIST             11 ..\..\output\output.StrFhbTobTest\StrFhbTobTest.lst REPLACE
DATA(BINARY)      9 ..\..\output\output.StrFhbTobTest\StrFhbTobTest.cbc REPLACE
DIS              12 ..\..\model\model.StrFhbTobTest\StrFhbTobTest.dis OLD
BAS6             13 ..\..\model\model.StrFhbTobTest\StrFhbTobTest.bas OLD
OC               39 ..\..\model\model.StrFhbTobTest\StrFhbTobTest.oc OLD
DATA             37 ..\..\output\output.StrFhbTobTest\StrFhbTobTest.fhd REPLACE
DATA             38 ..\..\output\output.StrFhbTobTest\StrFhbTobTest.fdn REPLACE
PCG              18 ..\..\model\model.StrFhbTobTest\StrFhbTobTest.pcg OLD
LPF              14 ..\..\model\model.StrFhbTobTest\StrFhbTobTest.lpf OLD
LMT6            135 ..\..\model\model.StrFhbTobTest\StrFhbTobTest.lmt OLD
STR             142 ..\..\model\model.StrFhbTobTest\StrFhbTobTest.str OLD
DATA(BINARY)    143 ..\..\output\output.StrFhbTobTest\StrFhbTobTest.str_flow REPLACE
STOB            144 ..\..\model\model.StrFhbTobTest\StrFhbTobTest.ob_stob OLD
DATA            145 ..\..\output\output.StrFhbTobTest\StrFhbTobTest.stob_out REPLACE
FHB             146 ..\..\model\model.StrFhbTobTest\StrFhbTobTest.fhb OLD
