# Name File for MT3DMS created on 10/11/2018 by ModelMuse
LIST 16 ..\..\output\output.StrFhbTobTest_MT3DMS\StrFhbTobTest.mls
FTL 10 ..\..\output\output.StrFhbTobTest\StrFhbTobTest.ftl
DATA 17 ..\..\output\output.StrFhbTobTest_MT3DMS\StrFhbTobTest.cnf
BTN 1 ..\..\model\model.StrFhbTobTest_MT3DMS\StrFhbTobTest.btn
DATA(BINARY) 201 ..\..\output\output.StrFhbTobTest_MT3DMS\StrFhbTobTest_abc.ucn
DATA 601 ..\..\output\output.StrFhbTobTest_MT3DMS\StrFhbTobTest_abc._mas
SSM 4 ..\..\model\model.StrFhbTobTest_MT3DMS\StrFhbTobTest.ssm
GCG 9 ..\..\model\model.StrFhbTobTest_MT3DMS\StrFhbTobTest.gcg
TOB 7 ..\..\model\model.StrFhbTobTest_MT3DMS\StrFhbTobTest.tob
DATA 22 ..\..\output\output.StrFhbTobTest_MT3DMS\StrFhbTobTest.mfx
DATA(BINARY) 23 ..\..\output\output.StrFhbTobTest_MT3DMS\StrFhbTobTest.pst
