# Name File for MT3DMS created on 11/16/2019 by ModelMuse
LIST 16 ..\..\output\output.StrFhbTobTest_MT3DMS\StrFhbTobTest.mls
FTL 10 ..\..\output\output.StrFhbTobTest\StrFhbTobTest.ftl
DATA 17 ..\..\output\output.StrFhbTobTest_MT3DMS\StrFhbTobTest.cnf
BTN 1 ..\..\model\model.StrFhbTobTest_MT3DMS\StrFhbTobTest.btn
DATA(BINARY) 201 ..\..\output\output.StrFhbTobTest_MT3DMS\StrFhbTobTest_abc.ucn
DATA 601 ..\..\output\output.StrFhbTobTest_MT3DMS\StrFhbTobTest_abc._mas
SSM 4 ..\..\model\model.StrFhbTobTest_MT3DMS\StrFhbTobTest.ssm
GCG 9 ..\..\model\model.StrFhbTobTest_MT3DMS\StrFhbTobTest.gcg
TOB 12 ..\..\model\model.StrFhbTobTest_MT3DMS\StrFhbTobTest.tob
DATA 30 ..\..\output\output.StrFhbTobTest_MT3DMS\StrFhbTobTest.mfx
DATA(BINARY) 31 ..\..\output\output.StrFhbTobTest_MT3DMS\StrFhbTobTest.pst
