# Name File for MODFLOW created on 2/1/2017 by ModelMuse Version 3.8.1.27
LIST             11 ..\..\output\output.SubOwhm\SubOwhm.lst REPLACE
DATA(BINARY)      9 ..\..\output\output.SubOwhm\SubOwhm.cbc REPLACE
DIS              12 ..\..\model\model.SubOwhm\SubOwhm.dis OLD
BAS6             13 ..\..\model\model.SubOwhm\SubOwhm.bas OLD
OC               39 ..\..\model\model.SubOwhm\SubOwhm.oc OLD
DATA             37 ..\..\output\output.SubOwhm\SubOwhm.fhd REPLACE
DATA             38 ..\..\output\output.SubOwhm\SubOwhm.fdn REPLACE
DATA            189 ..\..\output\output.SubOwhm\SubOwhm.wbgt REPLACE
SIP              35 ..\..\model\model.SubOwhm\SubOwhm.sip OLD
BCF6             64 ..\..\model\model.SubOwhm\SubOwhm.bcf OLD
CHD              17 ..\..\model\model.SubOwhm\SubOwhm.chd OLD
WEL              20 ..\..\model\model.SubOwhm\SubOwhm.wel OLD
SUB              65 ..\..\model\model.SubOwhm\SubOwhm.sub OLD
DATA(BINARY)    110 ..\..\output\output.SubOwhm\SubOwhm.SubSubOut REPLACE
DATA(BINARY)    111 ..\..\output\output.SubOwhm\SubOwhm.SubComMlOut REPLACE
DATA(BINARY)    112 ..\..\output\output.SubOwhm\SubOwhm.SubComIsOut REPLACE
DATA(BINARY)    192 ..\..\output\output.SubOwhm\SubOwhm.SubElasCompMlOut REPLACE
DATA(BINARY)    193 ..\..\output\output.SubOwhm\SubOwhm.SubInelasCompMlOut REPLACE
DATA(BINARY)    194 ..\..\output\output.SubOwhm\SubOwhm.SubElasCompIbOut REPLACE
DATA(BINARY)    195 ..\..\output\output.SubOwhm\SubOwhm.SubInelasCompIbOut REPLACE
