# Name File for MODFLOW created on 10/26/2016 by ModelMuse Version 3.8.1.12
LIST             11 SubOwhm.lst REPLACE
DATA(BINARY)      9 SubOwhm.cbc REPLACE
DIS              12 SubOwhm.dis OLD
BAS6             13 SubOwhm.bas OLD
OC               39 SubOwhm.oc OLD
DATA             37 SubOwhm.fhd REPLACE
DATA             38 SubOwhm.fdn REPLACE
DATA            189 SubOwhm.wbgt REPLACE
SIP              35 SubOwhm.sip OLD
BCF6             64 SubOwhm.bcf OLD
CHD              17 SubOwhm.chd OLD
WEL              20 SubOwhm.wel OLD
SUB              65 SubOwhm.sub OLD
DATA(BINARY)    110 SubOwhm.SubSubOut REPLACE
DATA(BINARY)    111 SubOwhm.SubComMlOut REPLACE
DATA(BINARY)    112 SubOwhm.SubComIsOut REPLACE
DATA(BINARY)    192 SubOwhm.SubElasCompMlOut REPLACE
DATA(BINARY)    193 SubOwhm.SubInelasCompMlOut REPLACE
DATA(BINARY)    194 SubOwhm.SubElasCompIbOut REPLACE
DATA(BINARY)    195 SubOwhm.SubInelasCompIbOut REPLACE
