# Name File for MODFLOW created on 2/1/2017 by ModelMuse Version 3.8.1.27
LIST             11 ..\..\output\output.SWI2_Cont\SWI2_Cont.lst REPLACE
DATA(BINARY)      9 ..\..\output\output.SWI2_Cont\SWI2_Cont.cbc REPLACE
DIS              12 ..\..\model\model.SWI2_Cont\SWI2_Cont.dis OLD
BAS6             13 ..\..\model\model.SWI2_Cont\SWI2_Cont.bas OLD
OC               39 ..\..\model\model.SWI2_Cont\SWI2_Cont.oc OLD
DATA             37 ..\..\output\output.SWI2_Cont\SWI2_Cont.fhd REPLACE
DATA             38 ..\..\output\output.SWI2_Cont\SWI2_Cont.fdn REPLACE
PCG              18 ..\..\model\model.SWI2_Cont\SWI2_Cont.pcg OLD
BCF6             64 ..\..\model\model.SWI2_Cont\SWI2_Cont.bcf OLD
CHD              17 ..\..\model\model.SWI2_Cont\SWI2_Cont.chd OLD
SWI2            168 ..\..\model\model.SWI2_Cont\SWI2_Cont.swi OLD
DATA(BINARY)    170 ..\..\output\output.SWI2_Cont\SWI2_Cont.zta REPLACE
