# Discretization File created on 12/12/2015 by ModelMuse version 3.6.3.5.
# Basic package file for MODFLOW, generated by Flopy.
# Upper left corner: (0, 0)
# Lower left corner: (0, -1)
# Upper right corner: (300, 0)
# Lower right corner: (300, -1)
# Grid angle (in degrees counterclockwise): 0
     1     1    60     1     4     2 # NLAY, NROW, NCOL, NPER, ITMUNI, LENUNI
     0 # LAYCB
CONSTANT     5.000000000000E+000  # DELR
CONSTANT     1.000000000000E+000  # DELC
CONSTANT     0.000000000000E+000  # TOP
CONSTANT    -4.000000000000E+001  # BOTM, Layer 1
  2.000000000000E+003   1000  1.000000000000E+000  SS # PERLEN NSTP TSMULT Ss/tr (Stress period 1)
