# Name File for MODFLOW created on 2/1/2017 by ModelMuse Version 3.8.1.27
LIST             11 ..\..\output\output.SWI2_Strat\SWI2_Strat.lst REPLACE
DATA(BINARY)      9 ..\..\output\output.SWI2_Strat\SWI2_Strat.cbc REPLACE
DIS              12 ..\..\model\model.SWI2_Strat\SWI2_Strat.dis OLD
BAS6             13 ..\..\model\model.SWI2_Strat\SWI2_Strat.bas OLD
OC               39 ..\..\model\model.SWI2_Strat\SWI2_Strat.oc OLD
DATA             37 ..\..\output\output.SWI2_Strat\SWI2_Strat.fhd REPLACE
DATA             38 ..\..\output\output.SWI2_Strat\SWI2_Strat.fdn REPLACE
PCG              18 ..\..\model\model.SWI2_Strat\SWI2_Strat.pcg OLD
BCF6             64 ..\..\model\model.SWI2_Strat\SWI2_Strat.bcf OLD
CHD              17 ..\..\model\model.SWI2_Strat\SWI2_Strat.chd OLD
SWI2            168 ..\..\model\model.SWI2_Strat\SWI2_Strat.swi OLD
DATA(BINARY)    170 ..\..\output\output.SWI2_Strat\SWI2_Strat.zta REPLACE
