# Name File for MODFLOW created on 12/14/2015 by ModelMuse
LIST             11 SWI2_Strat.lst REPLACE
DATA(BINARY)      9 SWI2_Strat.cbc REPLACE
DIS              12 SWI2_Strat.dis OLD
BAS6             13 SWI2_Strat.bas OLD
OC               39 SWI2_Strat.oc OLD
DATA             37 SWI2_Strat.fhd REPLACE
DATA             38 SWI2_Strat.fdn REPLACE
PCG              18 SWI2_Strat.pcg OLD
BCF6             64 SWI2_Strat.bcf OLD
CHD              17 SWI2_Strat.chd OLD
SWI2            168 SWI2_Strat.swi OLD
DATA(BINARY)    170 SWI2_Strat.zta REPLACE
