# PCG: Preconditioned Conjugate Gradient package file created on 12/12/2015 by ModelMuse version 3.6.3.5.
# PCG for MODFLOW, generated by Flopy.
    50    30     1     0 # MXITER, ITER1, NPCOND, IHCOFADD
  0.000000000000E+000   0.000000000000E+000   1.000000000000E+000      1     0     3  1.000000000000E+000  # HCLOSE, RCLOSE, RELAX, NBPOL, IPRPCG, MUTPCG, DAMPPCG
