# Name File for MODFLOW created on 12/14/2015 by ModelMuse
LIST             11 SWI2_Cont.lst REPLACE
DATA(BINARY)      9 SWI2_Cont.cbc REPLACE
DIS              12 SWI2_Cont.dis OLD
BAS6             13 SWI2_Cont.bas OLD
OC               39 SWI2_Cont.oc OLD
DATA             37 SWI2_Cont.fhd REPLACE
DATA             38 SWI2_Cont.fdn REPLACE
PCG              18 SWI2_Cont.pcg OLD
BCF6             64 SWI2_Cont.bcf OLD
CHD              17 SWI2_Cont.chd OLD
SWI2            168 SWI2_Cont.swi OLD
DATA(BINARY)    170 SWI2_Cont.zta REPLACE
