# GHB: General-Head Boundary package file created on 12/12/2015 by ModelMuse version 3.6.3.5.
# GHB for MODFLOW, generated by Flopy.
    30     9 AUXILIARY IFACE # DataSet 2: MXACTC IGHBCB Option
    30     0 # Data Set 5: ITMP NP Stress period 1
     1     1     1  0.000000000000E+000   4.000000000000E-001      0 # Data Set 6: Layer Row Column Bhead Cond IFACE
     1     1     2  0.000000000000E+000   4.000000000000E-001      0 # Data Set 6: Layer Row Column Bhead Cond IFACE
     1     1     3  0.000000000000E+000   4.000000000000E-001      0 # Data Set 6: Layer Row Column Bhead Cond IFACE
     1     1     4  0.000000000000E+000   4.000000000000E-001      0 # Data Set 6: Layer Row Column Bhead Cond IFACE
     1     1     5  0.000000000000E+000   4.000000000000E-001      0 # Data Set 6: Layer Row Column Bhead Cond IFACE
     1     1     6  0.000000000000E+000   4.000000000000E-001      0 # Data Set 6: Layer Row Column Bhead Cond IFACE
     1     1     7  0.000000000000E+000   4.000000000000E-001      0 # Data Set 6: Layer Row Column Bhead Cond IFACE
     1     1     8  0.000000000000E+000   4.000000000000E-001      0 # Data Set 6: Layer Row Column Bhead Cond IFACE
     1     1     9  0.000000000000E+000   4.000000000000E-001      0 # Data Set 6: Layer Row Column Bhead Cond IFACE
     1     1    10  0.000000000000E+000   4.000000000000E-001      0 # Data Set 6: Layer Row Column Bhead Cond IFACE
     1     1    11  0.000000000000E+000   4.000000000000E-001      0 # Data Set 6: Layer Row Column Bhead Cond IFACE
     1     1    12  0.000000000000E+000   4.000000000000E-001      0 # Data Set 6: Layer Row Column Bhead Cond IFACE
     1     1    13  0.000000000000E+000   4.000000000000E-001      0 # Data Set 6: Layer Row Column Bhead Cond IFACE
     1     1    14  0.000000000000E+000   4.000000000000E-001      0 # Data Set 6: Layer Row Column Bhead Cond IFACE
     1     1    15  0.000000000000E+000   4.000000000000E-001      0 # Data Set 6: Layer Row Column Bhead Cond IFACE
     1     1    16  0.000000000000E+000   4.000000000000E-001      0 # Data Set 6: Layer Row Column Bhead Cond IFACE
     1     1    17  0.000000000000E+000   4.000000000000E-001      0 # Data Set 6: Layer Row Column Bhead Cond IFACE
     1     1    18  0.000000000000E+000   4.000000000000E-001      0 # Data Set 6: Layer Row Column Bhead Cond IFACE
     1     1    19  0.000000000000E+000   4.000000000000E-001      0 # Data Set 6: Layer Row Column Bhead Cond IFACE
     1     1    20  0.000000000000E+000   4.000000000000E-001      0 # Data Set 6: Layer Row Column Bhead Cond IFACE
     1     1    21  0.000000000000E+000   4.000000000000E-001      0 # Data Set 6: Layer Row Column Bhead Cond IFACE
     1     1    22  0.000000000000E+000   4.000000000000E-001      0 # Data Set 6: Layer Row Column Bhead Cond IFACE
     1     1    23  0.000000000000E+000   4.000000000000E-001      0 # Data Set 6: Layer Row Column Bhead Cond IFACE
     1     1    24  0.000000000000E+000   4.000000000000E-001      0 # Data Set 6: Layer Row Column Bhead Cond IFACE
     1     1    25  0.000000000000E+000   4.000000000000E-001      0 # Data Set 6: Layer Row Column Bhead Cond IFACE
     1     1    26  0.000000000000E+000   4.000000000000E-001      0 # Data Set 6: Layer Row Column Bhead Cond IFACE
     1     1    27  0.000000000000E+000   4.000000000000E-001      0 # Data Set 6: Layer Row Column Bhead Cond IFACE
     1     1    28  0.000000000000E+000   4.000000000000E-001      0 # Data Set 6: Layer Row Column Bhead Cond IFACE
     1     1    29  0.000000000000E+000   4.000000000000E-001      0 # Data Set 6: Layer Row Column Bhead Cond IFACE
     1     1    30  0.000000000000E+000   4.000000000000E-001      0 # Data Set 6: Layer Row Column Bhead Cond IFACE
    -1     0 # Data Set 5: ITMP NP Stress period 2
