# Discretization File created on 12/12/2015 by ModelMuse version 3.6.3.5.
# Basic package file for MODFLOW, generated by Flopy.
# Upper left corner: (0, 0)
# Lower left corner: (0, -1)
# Upper right corner: (4000, 0)
# Lower right corner: (4000, -1)
# Grid angle (in degrees counterclockwise): 0
     3     1   200     2     4     2 # NLAY, NROW, NCOL, NPER, ITMUNI, LENUNI
     0     0     0 # LAYCB
CONSTANT     2.000000000000E+001  # DELR
CONSTANT     1.000000000000E+000  # DELC
CONSTANT    -9.000000000000E+000  # TOP
CONSTANT    -2.900000000000E+001  # BOTM, Layer 1
CONSTANT    -3.000000000000E+001  # BOTM, Layer 2
CONSTANT    -5.000000000000E+001  # BOTM, Layer 3
  3.650000000000E+005    500  1.000000000000E+000  SS # PERLEN NSTP TSMULT Ss/tr (Stress period 1)
  3.650000000000E+005    500  1.000000000000E+000  SS # PERLEN NSTP TSMULT Ss/tr (Stress period 2)
