# WEL: Well package file created on 12/3/2017 by ModelMuse version 3.9.0.23.
# Well file for MODFLOW, generated by Flopy.
     2     9 AUXILIARY IFACE # DataSet 2: MXACTW IWELCB Option
     2     0 # Data Set 5: ITMP NP Stress period 1
     1     1   200  9.999999800000E-003      0 # Data Set 6: Layer Row Column Q IFACE Intersected by Imported_Wel_StressPeriod1_Layer1_1 with formula: ObjectImportedValuesR("WelPump1")
     3     1   200  2.000000000000E-002      0 # Data Set 6: Layer Row Column Q IFACE Intersected by Imported_Wel_StressPeriod1_Layer3_2 with formula: ObjectImportedValuesR("WelPump2")
     2     0 # Data Set 5: ITMP NP Stress period 2
     1     1   200  4.999999900000E-003      0 # Data Set 6: Layer Row Column Q IFACE Intersected by Imported_Wel_StressPeriod2_Layer1_3 with formula: ObjectImportedValuesR("WelPump3")
     3     1   200  9.999999800000E-003      0 # Data Set 6: Layer Row Column Q IFACE Intersected by Imported_Wel_StressPeriod2_Layer3_4 with formula: ObjectImportedValuesR("WelPump4")
