# Name File for MODFLOW created on 2/1/2017 by ModelMuse Version 3.8.1.27
LIST             11 ..\..\output\output.SWI4_2d\SWI4_2d.lst REPLACE
DATA(BINARY)      9 ..\..\output\output.SWI4_2d\SWI4_2d.cbc REPLACE
DIS              12 ..\..\model\model.SWI4_2d\SWI4_2d.dis OLD
BAS6             13 ..\..\model\model.SWI4_2d\SWI4_2d.bas OLD
OC               39 ..\..\model\model.SWI4_2d\SWI4_2d.oc OLD
DATA             37 ..\..\output\output.SWI4_2d\SWI4_2d.fhd REPLACE
DATA             38 ..\..\output\output.SWI4_2d\SWI4_2d.fdn REPLACE
PCG              18 ..\..\model\model.SWI4_2d\SWI4_2d.pcg OLD
LPF              14 ..\..\model\model.SWI4_2d\SWI4_2d.lpf OLD
GHB              19 ..\..\model\model.SWI4_2d\SWI4_2d.ghb OLD
WEL              20 ..\..\model\model.SWI4_2d\SWI4_2d.wel OLD
SWI2            168 ..\..\model\model.SWI4_2d\SWI4_2d.swi OLD
DATA            169 ..\..\output\output.SWI4_2d\SWI4_2d.swi_obs REPLACE
DATA(BINARY)    170 ..\..\output\output.SWI4_2d\SWI4_2d.zta REPLACE
