# Name File for MODFLOW created on 12/14/2015 by ModelMuse
LIST             11 SWI4_2d.lst REPLACE
DATA(BINARY)      9 SWI4_2d.cbc REPLACE
DIS              12 SWI4_2d.dis OLD
BAS6             13 SWI4_2d.bas OLD
OC               39 SWI4_2d.oc OLD
DATA             37 SWI4_2d.fhd REPLACE
DATA             38 SWI4_2d.fdn REPLACE
PCG              18 SWI4_2d.pcg OLD
LPF              14 SWI4_2d.lpf OLD
GHB              19 SWI4_2d.ghb OLD
WEL              20 SWI4_2d.wel OLD
SWI2            168 SWI4_2d.swi OLD
DATA            169 SWI4_2d.swi_obs REPLACE
DATA(BINARY)    170 SWI4_2d.zta REPLACE
