# Discretization File created on 1/20/2023 by ModelMuse version 5.1.1.8.
# Basic package file for MODFLOW, generated by Flopy.
# Upper left corner: (0, 0)
# Lower left corner: (0, -3050)
# Upper right corner: (3050, 0)
# Lower right corner: (3050, -3050)
# Grid angle (in degrees counterclockwise): 0
     2    61    61     3     4     2 # NLAY, NROW, NCOL, NPER, ITMUNI, LENUNI
     0     0 # LAYCB
CONSTANT     5.000000000000E+001  # DELR
CONSTANT     5.000000000000E+001  # DELC
CONSTANT    -1.000000000000E+001  # TOP
CONSTANT    -3.000000000000E+001  # BOTM, Layer 1
CONSTANT    -5.000000000000E+001  # BOTM, Layer 2
  7.300000000000E+004   1000  1.000000000000E+000  SS # PERLEN NSTP TSMULT Ss/tr (Stress period 1) Time =  0.000000000000E+000  -  7.300000000000E+004 
  4.380000000000E+003    120  1.000000000000E+000  SS # PERLEN NSTP TSMULT Ss/tr (Stress period 2) Time =  7.300000000000E+004  -  7.738000000000E+004 
  6.570000000000E+003    180  1.000000000000E+000  SS # PERLEN NSTP TSMULT Ss/tr (Stress period 3) Time =  7.738000000000E+004  -  8.395000000000E+004 
