# Basic package file for MODFLOW, generated by Flopy.
# Basic Package file created on 6/8/2020 by ModelMuse version 4.2.0.17.
# Number of active cells = 7442.
FREE  # OPTIONS
CONSTANT        1 # IBOUND Layer 1
CONSTANT        1 # IBOUND Layer 2
 -9.999900000000E+002  # HNOFLO
CONSTANT     0.000000000000E+000  # STRT Layer 1
CONSTANT     0.000000000000E+000  # STRT Layer 2
