# Name File for MODFLOW created on 12/14/2015 by ModelMuse
LIST             11 SWI5.lst REPLACE
DATA(BINARY)      9 SWI5.cbc REPLACE
DIS              12 SWI5.dis OLD
BAS6             13 SWI5.bas OLD
OC               39 SWI5.oc OLD
DATA             37 SWI5.fhd REPLACE
DATA             38 SWI5.fdn REPLACE
PCG              18 SWI5.pcg OLD
LPF              14 SWI5.lpf OLD
GHB              19 SWI5.ghb OLD
WEL              20 SWI5.wel OLD
SWI2            168 SWI5.swi OLD
DATA(BINARY)    170 SWI5.zta REPLACE
