# GHB: General-Head Boundary package file created on 12/12/2015 by ModelMuse version 3.6.3.5.
# GHB for MODFLOW, generated by Flopy.
     6     9 AUXILIARY IFACE # DataSet 2: MXACTC IGHBCB Option
     6     0 # Data Set 5: ITMP NP Stress period 1
     1     1   113  0.000000000000E+000   6.135007000000E+005      0 # Data Set 6: Layer Row Column Bhead Cond IFACE
     2     1   113  0.000000000000E+000   6.135007000000E+005      0 # Data Set 6: Layer Row Column Bhead Cond IFACE
     3     1   113  0.000000000000E+000   6.135007000000E+005      0 # Data Set 6: Layer Row Column Bhead Cond IFACE
     4     1   113  0.000000000000E+000   6.135007000000E+005      0 # Data Set 6: Layer Row Column Bhead Cond IFACE
     5     1   113  0.000000000000E+000   6.135007000000E+005      0 # Data Set 6: Layer Row Column Bhead Cond IFACE
     6     1   113  0.000000000000E+000   6.135007000000E+005      0 # Data Set 6: Layer Row Column Bhead Cond IFACE
    -1     0 # Data Set 5: ITMP NP Stress period 2
