# Discretization File created on 1/20/2023 by ModelMuse version 5.1.1.8.
# Basic package file for MODFLOW, generated by Flopy.
# Upper left corner: (0, 0)
# Lower left corner: (0, -1)
# Upper right corner: (2825, 0)
# Lower right corner: (2825, -1)
# Grid angle (in degrees counterclockwise): 0
     6     1   113     2     4     2 # NLAY, NROW, NCOL, NPER, ITMUNI, LENUNI
     0     0     0     0     0     0 # LAYCB
CONSTANT     2.500000000000E+001  # DELR
CONSTANT     1.000000000000E+000  # DELC
CONSTANT     0.000000000000E+000  # TOP
CONSTANT    -2.000000000000E+001  # BOTM, Layer 1
CONSTANT    -4.000000000000E+001  # BOTM, Layer 2
CONSTANT    -6.000000000000E+001  # BOTM, Layer 3
CONSTANT    -8.000000000000E+001  # BOTM, Layer 4
CONSTANT    -1.000000000000E+002  # BOTM, Layer 5
CONSTANT    -1.200000000000E+002  # BOTM, Layer 6
  1.460000000000E+003   1460  1.000000000000E+000  SS # PERLEN NSTP TSMULT Ss/tr (Stress period 1) Time =  0.000000000000E+000  -  1.460000000000E+003 
  1.460000000000E+003   1460  1.000000000000E+000  SS # PERLEN NSTP TSMULT Ss/tr (Stress period 2) Time =  1.460000000000E+003  -  2.920000000000E+003 
