# LPF: Layer Property Flow package file created on 12/12/2015 by ModelMuse version 3.6.3.5.
# LPF for MODFLOW, generated by Flopy.
     9 -1.000000000000E+030      0 # ILPFCB, HDRY, NPLPF
     0     0     0     0     0     0 # LAYTYP
     1     1     1     1     1     1 # LAYAVG
    -1    -1    -1    -1    -1    -1 # CHANI
     0     0     0     0     0     0 # LAYVKA
     0     0     0     0     0     0 # LAYWET
INTERNAL 1.0 (FREE)       12 # HK Layer 1 Layer 1
  1.704170000000E+003   5.112510000000E+003   8.520840000000E+003   1.192920000000E+004   1.533750000000E+004   1.874590000000E+004   2.215420000000E+004   2.556250000000E+004   2.897090000000E+004   3.237920000000E+004 
  3.578750000000E+004   3.919590000000E+004   4.260420000000E+004   4.601260000000E+004   4.942090000000E+004   5.282920000000E+004   5.623760000000E+004   5.964590000000E+004   6.305420000000E+004   6.646260000000E+004 
  6.987090000000E+004   7.327930000000E+004   7.668760000000E+004   8.009590000000E+004   8.350430000000E+004   8.691260000000E+004   9.032090000000E+004   9.372930000000E+004   9.713760000000E+004   1.005460000000E+005 
  1.039540000000E+005   1.073630000000E+005   1.107710000000E+005   1.141790000000E+005   1.175880000000E+005   1.209960000000E+005   1.244040000000E+005   1.278130000000E+005   1.312210000000E+005   1.346290000000E+005 
  1.380380000000E+005   1.414460000000E+005   1.448540000000E+005   1.482630000000E+005   1.516710000000E+005   1.550790000000E+005   1.584880000000E+005   1.618960000000E+005   1.653040000000E+005   1.687130000000E+005 
  1.721210000000E+005   1.755290000000E+005   1.789380000000E+005   1.823460000000E+005   1.857540000000E+005   1.891630000000E+005   1.925710000000E+005   1.959790000000E+005   1.993880000000E+005   2.027960000000E+005 
  2.062040000000E+005   2.096130000000E+005   2.130210000000E+005   2.164290000000E+005   2.198380000000E+005   2.232460000000E+005   2.266540000000E+005   2.300630000000E+005   2.334710000000E+005   2.368790000000E+005 
  2.402880000000E+005   2.436960000000E+005   2.471040000000E+005   2.505130000000E+005   2.539210000000E+005   2.573290000000E+005   2.607380000000E+005   2.641460000000E+005   2.675540000000E+005   2.709630000000E+005 
  2.743710000000E+005   2.777800000000E+005   2.811880000000E+005   2.845960000000E+005   2.880050000000E+005   2.914130000000E+005   2.948210000000E+005   2.982300000000E+005   3.016380000000E+005   3.050460000000E+005 
  3.084550000000E+005   3.118630000000E+005   3.152710000000E+005   3.186800000000E+005   3.220880000000E+005   3.254960000000E+005   3.289050000000E+005   3.323130000000E+005   3.357210000000E+005   3.391300000000E+005 
  3.425380000000E+005   3.459460000000E+005   3.493550000000E+005   3.527630000000E+005   3.561710000000E+005   3.595800000000E+005   3.629880000000E+005   3.663960000000E+005   3.698050000000E+005   3.732130000000E+005 
  3.766210000000E+005   3.800300000000E+005   3.834380000000E+005 
CONSTANT     1.000000000000E+000  # HANI Layer 1 Layer 1
INTERNAL 1.0 (FREE)       12 # VKA Layer 1 Layer 1
  6.656910000000E+002   1.997070000000E+003   3.328450000000E+003   4.659840000000E+003   5.991220000000E+003   7.322600000000E+003   8.653980000000E+003   9.985360000000E+003   1.131670000000E+004   1.264810000000E+004 
  1.397950000000E+004   1.531090000000E+004   1.664230000000E+004   1.797370000000E+004   1.930500000000E+004   2.063640000000E+004   2.196780000000E+004   2.329920000000E+004   2.463060000000E+004   2.596190000000E+004 
  2.729330000000E+004   2.862470000000E+004   2.995610000000E+004   3.128750000000E+004   3.261890000000E+004   3.395020000000E+004   3.528160000000E+004   3.661300000000E+004   3.794440000000E+004   3.927580000000E+004 
  4.060710000000E+004   4.193850000000E+004   4.326990000000E+004   4.460130000000E+004   4.593270000000E+004   4.726410000000E+004   4.859540000000E+004   4.992680000000E+004   5.125820000000E+004   5.258960000000E+004 
  5.392100000000E+004   5.525230000000E+004   5.658370000000E+004   5.791510000000E+004   5.924650000000E+004   6.057790000000E+004   6.190930000000E+004   6.324060000000E+004   6.457200000000E+004   6.590340000000E+004 
  6.723480000000E+004   6.856620000000E+004   6.989750000000E+004   7.122890000000E+004   7.256030000000E+004   7.389170000000E+004   7.522310000000E+004   7.655450000000E+004   7.788580000000E+004   7.921720000000E+004 
  8.054860000000E+004   8.188000000000E+004   8.321140000000E+004   8.454270000000E+004   8.587410000000E+004   8.720550000000E+004   8.853690000000E+004   8.986830000000E+004   9.119970000000E+004   9.253100000000E+004 
  9.386240000000E+004   9.519380000000E+004   9.652520000000E+004   9.785660000000E+004   9.918790000000E+004   1.005190000000E+005   1.018510000000E+005   1.031820000000E+005   1.045130000000E+005   1.058450000000E+005 
  1.071760000000E+005   1.085080000000E+005   1.098390000000E+005   1.111700000000E+005   1.125020000000E+005   1.138330000000E+005   1.151650000000E+005   1.164960000000E+005   1.178270000000E+005   1.191590000000E+005 
  1.204900000000E+005   1.218210000000E+005   1.231530000000E+005   1.244840000000E+005   1.258160000000E+005   1.271470000000E+005   1.284780000000E+005   1.298100000000E+005   1.311410000000E+005   1.324720000000E+005 
  1.338040000000E+005   1.351350000000E+005   1.364670000000E+005   1.377980000000E+005   1.391290000000E+005   1.404610000000E+005   1.417920000000E+005   1.431240000000E+005   1.444550000000E+005   1.457860000000E+005 
  1.471180000000E+005   1.484490000000E+005   1.497800000000E+005 
INTERNAL 1.0 (FREE)       12 # HK Layer 2 Layer 2
  1.704170000000E+003   5.112510000000E+003   8.520840000000E+003   1.192920000000E+004   1.533750000000E+004   1.874590000000E+004   2.215420000000E+004   2.556250000000E+004   2.897090000000E+004   3.237920000000E+004 
  3.578750000000E+004   3.919590000000E+004   4.260420000000E+004   4.601260000000E+004   4.942090000000E+004   5.282920000000E+004   5.623760000000E+004   5.964590000000E+004   6.305420000000E+004   6.646260000000E+004 
  6.987090000000E+004   7.327930000000E+004   7.668760000000E+004   8.009590000000E+004   8.350430000000E+004   8.691260000000E+004   9.032090000000E+004   9.372930000000E+004   9.713760000000E+004   1.005460000000E+005 
  1.039540000000E+005   1.073630000000E+005   1.107710000000E+005   1.141790000000E+005   1.175880000000E+005   1.209960000000E+005   1.244040000000E+005   1.278130000000E+005   1.312210000000E+005   1.346290000000E+005 
  1.380380000000E+005   1.414460000000E+005   1.448540000000E+005   1.482630000000E+005   1.516710000000E+005   1.550790000000E+005   1.584880000000E+005   1.618960000000E+005   1.653040000000E+005   1.687130000000E+005 
  1.721210000000E+005   1.755290000000E+005   1.789380000000E+005   1.823460000000E+005   1.857540000000E+005   1.891630000000E+005   1.925710000000E+005   1.959790000000E+005   1.993880000000E+005   2.027960000000E+005 
  2.062040000000E+005   2.096130000000E+005   2.130210000000E+005   2.164290000000E+005   2.198380000000E+005   2.232460000000E+005   2.266540000000E+005   2.300630000000E+005   2.334710000000E+005   2.368790000000E+005 
  2.402880000000E+005   2.436960000000E+005   2.471040000000E+005   2.505130000000E+005   2.539210000000E+005   2.573290000000E+005   2.607380000000E+005   2.641460000000E+005   2.675540000000E+005   2.709630000000E+005 
  2.743710000000E+005   2.777800000000E+005   2.811880000000E+005   2.845960000000E+005   2.880050000000E+005   2.914130000000E+005   2.948210000000E+005   2.982300000000E+005   3.016380000000E+005   3.050460000000E+005 
  3.084550000000E+005   3.118630000000E+005   3.152710000000E+005   3.186800000000E+005   3.220880000000E+005   3.254960000000E+005   3.289050000000E+005   3.323130000000E+005   3.357210000000E+005   3.391300000000E+005 
  3.425380000000E+005   3.459460000000E+005   3.493550000000E+005   3.527630000000E+005   3.561710000000E+005   3.595800000000E+005   3.629880000000E+005   3.663960000000E+005   3.698050000000E+005   3.732130000000E+005 
  3.766210000000E+005   3.800300000000E+005   3.834380000000E+005 
CONSTANT     1.000000000000E+000  # HANI Layer 2 Layer 2
INTERNAL 1.0 (FREE)       12 # VKA Layer 2 Layer 2
  6.656910000000E+002   1.997070000000E+003   3.328450000000E+003   4.659840000000E+003   5.991220000000E+003   7.322600000000E+003   8.653980000000E+003   9.985360000000E+003   1.131670000000E+004   1.264810000000E+004 
  1.397950000000E+004   1.531090000000E+004   1.664230000000E+004   1.797370000000E+004   1.930500000000E+004   2.063640000000E+004   2.196780000000E+004   2.329920000000E+004   2.463060000000E+004   2.596190000000E+004 
  2.729330000000E+004   2.862470000000E+004   2.995610000000E+004   3.128750000000E+004   3.261890000000E+004   3.395020000000E+004   3.528160000000E+004   3.661300000000E+004   3.794440000000E+004   3.927580000000E+004 
  4.060710000000E+004   4.193850000000E+004   4.326990000000E+004   4.460130000000E+004   4.593270000000E+004   4.726410000000E+004   4.859540000000E+004   4.992680000000E+004   5.125820000000E+004   5.258960000000E+004 
  5.392100000000E+004   5.525230000000E+004   5.658370000000E+004   5.791510000000E+004   5.924650000000E+004   6.057790000000E+004   6.190930000000E+004   6.324060000000E+004   6.457200000000E+004   6.590340000000E+004 
  6.723480000000E+004   6.856620000000E+004   6.989750000000E+004   7.122890000000E+004   7.256030000000E+004   7.389170000000E+004   7.522310000000E+004   7.655450000000E+004   7.788580000000E+004   7.921720000000E+004 
  8.054860000000E+004   8.188000000000E+004   8.321140000000E+004   8.454270000000E+004   8.587410000000E+004   8.720550000000E+004   8.853690000000E+004   8.986830000000E+004   9.119970000000E+004   9.253100000000E+004 
  9.386240000000E+004   9.519380000000E+004   9.652520000000E+004   9.785660000000E+004   9.918790000000E+004   1.005190000000E+005   1.018510000000E+005   1.031820000000E+005   1.045130000000E+005   1.058450000000E+005 
  1.071760000000E+005   1.085080000000E+005   1.098390000000E+005   1.111700000000E+005   1.125020000000E+005   1.138330000000E+005   1.151650000000E+005   1.164960000000E+005   1.178270000000E+005   1.191590000000E+005 
  1.204900000000E+005   1.218210000000E+005   1.231530000000E+005   1.244840000000E+005   1.258160000000E+005   1.271470000000E+005   1.284780000000E+005   1.298100000000E+005   1.311410000000E+005   1.324720000000E+005 
  1.338040000000E+005   1.351350000000E+005   1.364670000000E+005   1.377980000000E+005   1.391290000000E+005   1.404610000000E+005   1.417920000000E+005   1.431240000000E+005   1.444550000000E+005   1.457860000000E+005 
  1.471180000000E+005   1.484490000000E+005   1.497800000000E+005 
INTERNAL 1.0 (FREE)       12 # HK Layer 3 Layer 3
  1.704170000000E+003   5.112510000000E+003   8.520840000000E+003   1.192920000000E+004   1.533750000000E+004   1.874590000000E+004   2.215420000000E+004   2.556250000000E+004   2.897090000000E+004   3.237920000000E+004 
  3.578750000000E+004   3.919590000000E+004   4.260420000000E+004   4.601260000000E+004   4.942090000000E+004   5.282920000000E+004   5.623760000000E+004   5.964590000000E+004   6.305420000000E+004   6.646260000000E+004 
  6.987090000000E+004   7.327930000000E+004   7.668760000000E+004   8.009590000000E+004   8.350430000000E+004   8.691260000000E+004   9.032090000000E+004   9.372930000000E+004   9.713760000000E+004   1.005460000000E+005 
  1.039540000000E+005   1.073630000000E+005   1.107710000000E+005   1.141790000000E+005   1.175880000000E+005   1.209960000000E+005   1.244040000000E+005   1.278130000000E+005   1.312210000000E+005   1.346290000000E+005 
  1.380380000000E+005   1.414460000000E+005   1.448540000000E+005   1.482630000000E+005   1.516710000000E+005   1.550790000000E+005   1.584880000000E+005   1.618960000000E+005   1.653040000000E+005   1.687130000000E+005 
  1.721210000000E+005   1.755290000000E+005   1.789380000000E+005   1.823460000000E+005   1.857540000000E+005   1.891630000000E+005   1.925710000000E+005   1.959790000000E+005   1.993880000000E+005   2.027960000000E+005 
  2.062040000000E+005   2.096130000000E+005   2.130210000000E+005   2.164290000000E+005   2.198380000000E+005   2.232460000000E+005   2.266540000000E+005   2.300630000000E+005   2.334710000000E+005   2.368790000000E+005 
  2.402880000000E+005   2.436960000000E+005   2.471040000000E+005   2.505130000000E+005   2.539210000000E+005   2.573290000000E+005   2.607380000000E+005   2.641460000000E+005   2.675540000000E+005   2.709630000000E+005 
  2.743710000000E+005   2.777800000000E+005   2.811880000000E+005   2.845960000000E+005   2.880050000000E+005   2.914130000000E+005   2.948210000000E+005   2.982300000000E+005   3.016380000000E+005   3.050460000000E+005 
  3.084550000000E+005   3.118630000000E+005   3.152710000000E+005   3.186800000000E+005   3.220880000000E+005   3.254960000000E+005   3.289050000000E+005   3.323130000000E+005   3.357210000000E+005   3.391300000000E+005 
  3.425380000000E+005   3.459460000000E+005   3.493550000000E+005   3.527630000000E+005   3.561710000000E+005   3.595800000000E+005   3.629880000000E+005   3.663960000000E+005   3.698050000000E+005   3.732130000000E+005 
  3.766210000000E+005   3.800300000000E+005   3.834380000000E+005 
CONSTANT     1.000000000000E+000  # HANI Layer 3 Layer 3
INTERNAL 1.0 (FREE)       12 # VKA Layer 3 Layer 3
  6.656910000000E+002   1.997070000000E+003   3.328450000000E+003   4.659840000000E+003   5.991220000000E+003   7.322600000000E+003   8.653980000000E+003   9.985360000000E+003   1.131670000000E+004   1.264810000000E+004 
  1.397950000000E+004   1.531090000000E+004   1.664230000000E+004   1.797370000000E+004   1.930500000000E+004   2.063640000000E+004   2.196780000000E+004   2.329920000000E+004   2.463060000000E+004   2.596190000000E+004 
  2.729330000000E+004   2.862470000000E+004   2.995610000000E+004   3.128750000000E+004   3.261890000000E+004   3.395020000000E+004   3.528160000000E+004   3.661300000000E+004   3.794440000000E+004   3.927580000000E+004 
  4.060710000000E+004   4.193850000000E+004   4.326990000000E+004   4.460130000000E+004   4.593270000000E+004   4.726410000000E+004   4.859540000000E+004   4.992680000000E+004   5.125820000000E+004   5.258960000000E+004 
  5.392100000000E+004   5.525230000000E+004   5.658370000000E+004   5.791510000000E+004   5.924650000000E+004   6.057790000000E+004   6.190930000000E+004   6.324060000000E+004   6.457200000000E+004   6.590340000000E+004 
  6.723480000000E+004   6.856620000000E+004   6.989750000000E+004   7.122890000000E+004   7.256030000000E+004   7.389170000000E+004   7.522310000000E+004   7.655450000000E+004   7.788580000000E+004   7.921720000000E+004 
  8.054860000000E+004   8.188000000000E+004   8.321140000000E+004   8.454270000000E+004   8.587410000000E+004   8.720550000000E+004   8.853690000000E+004   8.986830000000E+004   9.119970000000E+004   9.253100000000E+004 
  9.386240000000E+004   9.519380000000E+004   9.652520000000E+004   9.785660000000E+004   9.918790000000E+004   1.005190000000E+005   1.018510000000E+005   1.031820000000E+005   1.045130000000E+005   1.058450000000E+005 
  1.071760000000E+005   1.085080000000E+005   1.098390000000E+005   1.111700000000E+005   1.125020000000E+005   1.138330000000E+005   1.151650000000E+005   1.164960000000E+005   1.178270000000E+005   1.191590000000E+005 
  1.204900000000E+005   1.218210000000E+005   1.231530000000E+005   1.244840000000E+005   1.258160000000E+005   1.271470000000E+005   1.284780000000E+005   1.298100000000E+005   1.311410000000E+005   1.324720000000E+005 
  1.338040000000E+005   1.351350000000E+005   1.364670000000E+005   1.377980000000E+005   1.391290000000E+005   1.404610000000E+005   1.417920000000E+005   1.431240000000E+005   1.444550000000E+005   1.457860000000E+005 
  1.471180000000E+005   1.484490000000E+005   1.497800000000E+005 
INTERNAL 1.0 (FREE)       12 # HK Layer 4 Layer 4
  1.704170000000E+003   5.112510000000E+003   8.520840000000E+003   1.192920000000E+004   1.533750000000E+004   1.874590000000E+004   2.215420000000E+004   2.556250000000E+004   2.897090000000E+004   3.237920000000E+004 
  3.578750000000E+004   3.919590000000E+004   4.260420000000E+004   4.601260000000E+004   4.942090000000E+004   5.282920000000E+004   5.623760000000E+004   5.964590000000E+004   6.305420000000E+004   6.646260000000E+004 
  6.987090000000E+004   7.327930000000E+004   7.668760000000E+004   8.009590000000E+004   8.350430000000E+004   8.691260000000E+004   9.032090000000E+004   9.372930000000E+004   9.713760000000E+004   1.005460000000E+005 
  1.039540000000E+005   1.073630000000E+005   1.107710000000E+005   1.141790000000E+005   1.175880000000E+005   1.209960000000E+005   1.244040000000E+005   1.278130000000E+005   1.312210000000E+005   1.346290000000E+005 
  1.380380000000E+005   1.414460000000E+005   1.448540000000E+005   1.482630000000E+005   1.516710000000E+005   1.550790000000E+005   1.584880000000E+005   1.618960000000E+005   1.653040000000E+005   1.687130000000E+005 
  1.721210000000E+005   1.755290000000E+005   1.789380000000E+005   1.823460000000E+005   1.857540000000E+005   1.891630000000E+005   1.925710000000E+005   1.959790000000E+005   1.993880000000E+005   2.027960000000E+005 
  2.062040000000E+005   2.096130000000E+005   2.130210000000E+005   2.164290000000E+005   2.198380000000E+005   2.232460000000E+005   2.266540000000E+005   2.300630000000E+005   2.334710000000E+005   2.368790000000E+005 
  2.402880000000E+005   2.436960000000E+005   2.471040000000E+005   2.505130000000E+005   2.539210000000E+005   2.573290000000E+005   2.607380000000E+005   2.641460000000E+005   2.675540000000E+005   2.709630000000E+005 
  2.743710000000E+005   2.777800000000E+005   2.811880000000E+005   2.845960000000E+005   2.880050000000E+005   2.914130000000E+005   2.948210000000E+005   2.982300000000E+005   3.016380000000E+005   3.050460000000E+005 
  3.084550000000E+005   3.118630000000E+005   3.152710000000E+005   3.186800000000E+005   3.220880000000E+005   3.254960000000E+005   3.289050000000E+005   3.323130000000E+005   3.357210000000E+005   3.391300000000E+005 
  3.425380000000E+005   3.459460000000E+005   3.493550000000E+005   3.527630000000E+005   3.561710000000E+005   3.595800000000E+005   3.629880000000E+005   3.663960000000E+005   3.698050000000E+005   3.732130000000E+005 
  3.766210000000E+005   3.800300000000E+005   3.834380000000E+005 
CONSTANT     1.000000000000E+000  # HANI Layer 4 Layer 4
INTERNAL 1.0 (FREE)       12 # VKA Layer 4 Layer 4
  6.656910000000E+002   1.997070000000E+003   3.328450000000E+003   4.659840000000E+003   5.991220000000E+003   7.322600000000E+003   8.653980000000E+003   9.985360000000E+003   1.131670000000E+004   1.264810000000E+004 
  1.397950000000E+004   1.531090000000E+004   1.664230000000E+004   1.797370000000E+004   1.930500000000E+004   2.063640000000E+004   2.196780000000E+004   2.329920000000E+004   2.463060000000E+004   2.596190000000E+004 
  2.729330000000E+004   2.862470000000E+004   2.995610000000E+004   3.128750000000E+004   3.261890000000E+004   3.395020000000E+004   3.528160000000E+004   3.661300000000E+004   3.794440000000E+004   3.927580000000E+004 
  4.060710000000E+004   4.193850000000E+004   4.326990000000E+004   4.460130000000E+004   4.593270000000E+004   4.726410000000E+004   4.859540000000E+004   4.992680000000E+004   5.125820000000E+004   5.258960000000E+004 
  5.392100000000E+004   5.525230000000E+004   5.658370000000E+004   5.791510000000E+004   5.924650000000E+004   6.057790000000E+004   6.190930000000E+004   6.324060000000E+004   6.457200000000E+004   6.590340000000E+004 
  6.723480000000E+004   6.856620000000E+004   6.989750000000E+004   7.122890000000E+004   7.256030000000E+004   7.389170000000E+004   7.522310000000E+004   7.655450000000E+004   7.788580000000E+004   7.921720000000E+004 
  8.054860000000E+004   8.188000000000E+004   8.321140000000E+004   8.454270000000E+004   8.587410000000E+004   8.720550000000E+004   8.853690000000E+004   8.986830000000E+004   9.119970000000E+004   9.253100000000E+004 
  9.386240000000E+004   9.519380000000E+004   9.652520000000E+004   9.785660000000E+004   9.918790000000E+004   1.005190000000E+005   1.018510000000E+005   1.031820000000E+005   1.045130000000E+005   1.058450000000E+005 
  1.071760000000E+005   1.085080000000E+005   1.098390000000E+005   1.111700000000E+005   1.125020000000E+005   1.138330000000E+005   1.151650000000E+005   1.164960000000E+005   1.178270000000E+005   1.191590000000E+005 
  1.204900000000E+005   1.218210000000E+005   1.231530000000E+005   1.244840000000E+005   1.258160000000E+005   1.271470000000E+005   1.284780000000E+005   1.298100000000E+005   1.311410000000E+005   1.324720000000E+005 
  1.338040000000E+005   1.351350000000E+005   1.364670000000E+005   1.377980000000E+005   1.391290000000E+005   1.404610000000E+005   1.417920000000E+005   1.431240000000E+005   1.444550000000E+005   1.457860000000E+005 
  1.471180000000E+005   1.484490000000E+005   1.497800000000E+005 
INTERNAL 1.0 (FREE)       12 # HK Layer 5 Layer 5
  1.704170000000E+003   5.112510000000E+003   8.520840000000E+003   1.192920000000E+004   1.533750000000E+004   1.874590000000E+004   2.215420000000E+004   2.556250000000E+004   2.897090000000E+004   3.237920000000E+004 
  3.578750000000E+004   3.919590000000E+004   4.260420000000E+004   4.601260000000E+004   4.942090000000E+004   5.282920000000E+004   5.623760000000E+004   5.964590000000E+004   6.305420000000E+004   6.646260000000E+004 
  6.987090000000E+004   7.327930000000E+004   7.668760000000E+004   8.009590000000E+004   8.350430000000E+004   8.691260000000E+004   9.032090000000E+004   9.372930000000E+004   9.713760000000E+004   1.005460000000E+005 
  1.039540000000E+005   1.073630000000E+005   1.107710000000E+005   1.141790000000E+005   1.175880000000E+005   1.209960000000E+005   1.244040000000E+005   1.278130000000E+005   1.312210000000E+005   1.346290000000E+005 
  1.380380000000E+005   1.414460000000E+005   1.448540000000E+005   1.482630000000E+005   1.516710000000E+005   1.550790000000E+005   1.584880000000E+005   1.618960000000E+005   1.653040000000E+005   1.687130000000E+005 
  1.721210000000E+005   1.755290000000E+005   1.789380000000E+005   1.823460000000E+005   1.857540000000E+005   1.891630000000E+005   1.925710000000E+005   1.959790000000E+005   1.993880000000E+005   2.027960000000E+005 
  2.062040000000E+005   2.096130000000E+005   2.130210000000E+005   2.164290000000E+005   2.198380000000E+005   2.232460000000E+005   2.266540000000E+005   2.300630000000E+005   2.334710000000E+005   2.368790000000E+005 
  2.402880000000E+005   2.436960000000E+005   2.471040000000E+005   2.505130000000E+005   2.539210000000E+005   2.573290000000E+005   2.607380000000E+005   2.641460000000E+005   2.675540000000E+005   2.709630000000E+005 
  2.743710000000E+005   2.777800000000E+005   2.811880000000E+005   2.845960000000E+005   2.880050000000E+005   2.914130000000E+005   2.948210000000E+005   2.982300000000E+005   3.016380000000E+005   3.050460000000E+005 
  3.084550000000E+005   3.118630000000E+005   3.152710000000E+005   3.186800000000E+005   3.220880000000E+005   3.254960000000E+005   3.289050000000E+005   3.323130000000E+005   3.357210000000E+005   3.391300000000E+005 
  3.425380000000E+005   3.459460000000E+005   3.493550000000E+005   3.527630000000E+005   3.561710000000E+005   3.595800000000E+005   3.629880000000E+005   3.663960000000E+005   3.698050000000E+005   3.732130000000E+005 
  3.766210000000E+005   3.800300000000E+005   3.834380000000E+005 
CONSTANT     1.000000000000E+000  # HANI Layer 5 Layer 5
INTERNAL 1.0 (FREE)       12 # VKA Layer 5 Layer 5
  6.656910000000E+002   1.997070000000E+003   3.328450000000E+003   4.659840000000E+003   5.991220000000E+003   7.322600000000E+003   8.653980000000E+003   9.985360000000E+003   1.131670000000E+004   1.264810000000E+004 
  1.397950000000E+004   1.531090000000E+004   1.664230000000E+004   1.797370000000E+004   1.930500000000E+004   2.063640000000E+004   2.196780000000E+004   2.329920000000E+004   2.463060000000E+004   2.596190000000E+004 
  2.729330000000E+004   2.862470000000E+004   2.995610000000E+004   3.128750000000E+004   3.261890000000E+004   3.395020000000E+004   3.528160000000E+004   3.661300000000E+004   3.794440000000E+004   3.927580000000E+004 
  4.060710000000E+004   4.193850000000E+004   4.326990000000E+004   4.460130000000E+004   4.593270000000E+004   4.726410000000E+004   4.859540000000E+004   4.992680000000E+004   5.125820000000E+004   5.258960000000E+004 
  5.392100000000E+004   5.525230000000E+004   5.658370000000E+004   5.791510000000E+004   5.924650000000E+004   6.057790000000E+004   6.190930000000E+004   6.324060000000E+004   6.457200000000E+004   6.590340000000E+004 
  6.723480000000E+004   6.856620000000E+004   6.989750000000E+004   7.122890000000E+004   7.256030000000E+004   7.389170000000E+004   7.522310000000E+004   7.655450000000E+004   7.788580000000E+004   7.921720000000E+004 
  8.054860000000E+004   8.188000000000E+004   8.321140000000E+004   8.454270000000E+004   8.587410000000E+004   8.720550000000E+004   8.853690000000E+004   8.986830000000E+004   9.119970000000E+004   9.253100000000E+004 
  9.386240000000E+004   9.519380000000E+004   9.652520000000E+004   9.785660000000E+004   9.918790000000E+004   1.005190000000E+005   1.018510000000E+005   1.031820000000E+005   1.045130000000E+005   1.058450000000E+005 
  1.071760000000E+005   1.085080000000E+005   1.098390000000E+005   1.111700000000E+005   1.125020000000E+005   1.138330000000E+005   1.151650000000E+005   1.164960000000E+005   1.178270000000E+005   1.191590000000E+005 
  1.204900000000E+005   1.218210000000E+005   1.231530000000E+005   1.244840000000E+005   1.258160000000E+005   1.271470000000E+005   1.284780000000E+005   1.298100000000E+005   1.311410000000E+005   1.324720000000E+005 
  1.338040000000E+005   1.351350000000E+005   1.364670000000E+005   1.377980000000E+005   1.391290000000E+005   1.404610000000E+005   1.417920000000E+005   1.431240000000E+005   1.444550000000E+005   1.457860000000E+005 
  1.471180000000E+005   1.484490000000E+005   1.497800000000E+005 
INTERNAL 1.0 (FREE)       12 # HK Layer 6 Layer 6
  1.704170000000E+003   5.112510000000E+003   8.520840000000E+003   1.192920000000E+004   1.533750000000E+004   1.874590000000E+004   2.215420000000E+004   2.556250000000E+004   2.897090000000E+004   3.237920000000E+004 
  3.578750000000E+004   3.919590000000E+004   4.260420000000E+004   4.601260000000E+004   4.942090000000E+004   5.282920000000E+004   5.623760000000E+004   5.964590000000E+004   6.305420000000E+004   6.646260000000E+004 
  6.987090000000E+004   7.327930000000E+004   7.668760000000E+004   8.009590000000E+004   8.350430000000E+004   8.691260000000E+004   9.032090000000E+004   9.372930000000E+004   9.713760000000E+004   1.005460000000E+005 
  1.039540000000E+005   1.073630000000E+005   1.107710000000E+005   1.141790000000E+005   1.175880000000E+005   1.209960000000E+005   1.244040000000E+005   1.278130000000E+005   1.312210000000E+005   1.346290000000E+005 
  1.380380000000E+005   1.414460000000E+005   1.448540000000E+005   1.482630000000E+005   1.516710000000E+005   1.550790000000E+005   1.584880000000E+005   1.618960000000E+005   1.653040000000E+005   1.687130000000E+005 
  1.721210000000E+005   1.755290000000E+005   1.789380000000E+005   1.823460000000E+005   1.857540000000E+005   1.891630000000E+005   1.925710000000E+005   1.959790000000E+005   1.993880000000E+005   2.027960000000E+005 
  2.062040000000E+005   2.096130000000E+005   2.130210000000E+005   2.164290000000E+005   2.198380000000E+005   2.232460000000E+005   2.266540000000E+005   2.300630000000E+005   2.334710000000E+005   2.368790000000E+005 
  2.402880000000E+005   2.436960000000E+005   2.471040000000E+005   2.505130000000E+005   2.539210000000E+005   2.573290000000E+005   2.607380000000E+005   2.641460000000E+005   2.675540000000E+005   2.709630000000E+005 
  2.743710000000E+005   2.777800000000E+005   2.811880000000E+005   2.845960000000E+005   2.880050000000E+005   2.914130000000E+005   2.948210000000E+005   2.982300000000E+005   3.016380000000E+005   3.050460000000E+005 
  3.084550000000E+005   3.118630000000E+005   3.152710000000E+005   3.186800000000E+005   3.220880000000E+005   3.254960000000E+005   3.289050000000E+005   3.323130000000E+005   3.357210000000E+005   3.391300000000E+005 
  3.425380000000E+005   3.459460000000E+005   3.493550000000E+005   3.527630000000E+005   3.561710000000E+005   3.595800000000E+005   3.629880000000E+005   3.663960000000E+005   3.698050000000E+005   3.732130000000E+005 
  3.766210000000E+005   3.800300000000E+005   3.834380000000E+005 
CONSTANT     1.000000000000E+000  # HANI Layer 6 Layer 6
INTERNAL 1.0 (FREE)       12 # VKA Layer 6 Layer 6
  6.656910000000E+002   1.997070000000E+003   3.328450000000E+003   4.659840000000E+003   5.991220000000E+003   7.322600000000E+003   8.653980000000E+003   9.985360000000E+003   1.131670000000E+004   1.264810000000E+004 
  1.397950000000E+004   1.531090000000E+004   1.664230000000E+004   1.797370000000E+004   1.930500000000E+004   2.063640000000E+004   2.196780000000E+004   2.329920000000E+004   2.463060000000E+004   2.596190000000E+004 
  2.729330000000E+004   2.862470000000E+004   2.995610000000E+004   3.128750000000E+004   3.261890000000E+004   3.395020000000E+004   3.528160000000E+004   3.661300000000E+004   3.794440000000E+004   3.927580000000E+004 
  4.060710000000E+004   4.193850000000E+004   4.326990000000E+004   4.460130000000E+004   4.593270000000E+004   4.726410000000E+004   4.859540000000E+004   4.992680000000E+004   5.125820000000E+004   5.258960000000E+004 
  5.392100000000E+004   5.525230000000E+004   5.658370000000E+004   5.791510000000E+004   5.924650000000E+004   6.057790000000E+004   6.190930000000E+004   6.324060000000E+004   6.457200000000E+004   6.590340000000E+004 