# WEL: Well package file created on 12/3/2017 by ModelMuse version 3.9.0.23.
# Well file for MODFLOW, generated by Flopy.
     1     9 AUXILIARY IFACE # DataSet 2: MXACTW IWELCB Option
     1     0 # Data Set 5: ITMP NP Stress period 1
     1     1     1 -2.400000000000E+003      0 # Data Set 6: Layer Row Column Q IFACE Intersected by Imported_Wel_StressPeriod1_Layer1_1 with formula: ObjectImportedValuesR("WelPump1")
     1     0 # Data Set 5: ITMP NP Stress period 2
     1     1     1  0.000000000000E+000      0 # Data Set 6: Layer Row Column Q IFACE Intersected by Imported_Wel_StressPeriod2_Layer1_2 with formula: ObjectImportedValuesR("WelPump2")
