# LPF: Layer Property Flow package file created on 12/12/2015 by ModelMuse version 3.6.3.5.
# LPF for MODFLOW, generated by Flopy.
     9 -1.000000000000E+030      0 # ILPFCB, HDRY, NPLPF
     0     0     0 # LAYTYP
     0     0     0 # LAYAVG
    -1    -1    -1 # CHANI
     0     0     0 # LAYVKA
     0     0     0 # LAYWET
CONSTANT     2.000000000000E+000  # HK Layer 1 Layer 1
CONSTANT     1.000000000000E+000  # HANI Layer 1 Layer 1
CONSTANT     2.000000000000E+000  # VKA Layer 1 Layer 1
CONSTANT     9.999999800000E-003  # HK Layer 2 Layer 2
CONSTANT     1.000000000000E+000  # HANI Layer 2 Layer 2
CONSTANT     9.999999800000E-003  # VKA Layer 2 Layer 2
CONSTANT     4.000000000000E+000  # HK Layer 3 Layer 3
CONSTANT     1.000000000000E+000  # HANI Layer 3 Layer 3
CONSTANT     4.000000000000E+000  # VKA Layer 3 Layer 3
