# Name File for MODFLOW created on 2/1/2017 by ModelMuse Version 3.8.1.27
LIST             11 ..\..\output\output.SWI6-1\SWI6-1.lst REPLACE
DATA(BINARY)      9 ..\..\output\output.SWI6-1\SWI6-1.cbc REPLACE
DIS              12 ..\..\model\model.SWI6-1\SWI6-1.dis OLD
BAS6             13 ..\..\model\model.SWI6-1\SWI6-1.bas OLD
OC               39 ..\..\model\model.SWI6-1\SWI6-1.oc OLD
DATA             37 ..\..\output\output.SWI6-1\SWI6-1.fhd REPLACE
DATA             38 ..\..\output\output.SWI6-1\SWI6-1.fdn REPLACE
PCG              18 ..\..\model\model.SWI6-1\SWI6-1.pcg OLD
LPF              14 ..\..\model\model.SWI6-1\SWI6-1.lpf OLD
GHB              19 ..\..\model\model.SWI6-1\SWI6-1.ghb OLD
WEL              20 ..\..\model\model.SWI6-1\SWI6-1.wel OLD
SWI2            168 ..\..\model\model.SWI6-1\SWI6-1.swi OLD
DATA(BINARY)    170 ..\..\output\output.SWI6-1\SWI6-1.zta REPLACE
