# Discretization File created on 1/20/2023 by ModelMuse version 5.1.1.8.
# Basic package file for MODFLOW, generated by Flopy.
# Upper left corner: (0, 0)
# Lower left corner: (0, -1)
# Upper right corner: (4000, 0)
# Lower right corner: (4000, -1)
# Grid angle (in degrees counterclockwise): 0
     3     1   200     1     4     2 # NLAY, NROW, NCOL, NPER, ITMUNI, LENUNI
     0     0     0 # LAYCB
CONSTANT     2.000000000000E+001  # DELR
CONSTANT     1.000000000000E+000  # DELC
CONSTANT     4.100000000000E+001  # TOP
CONSTANT     2.100000000000E+001  # BOTM, Layer 1
CONSTANT     2.000000000000E+001  # BOTM, Layer 2
CONSTANT     0.000000000000E+000  # BOTM, Layer 3
  1.825000000000E+005    500  1.000000000000E+000  SS # PERLEN NSTP TSMULT Ss/tr (Stress period 1) Time =  0.000000000000E+000  -  1.825000000000E+005 
