# Basic package file for MODFLOW, generated by Flopy.
# Basic Package file created on 12/12/2015 by ModelMuse version 3.6.3.5.
FREE XSECTION  # OPTIONS
INTERNAL 1 (FREE)        5 # IBOUND
     1     1     1     1     1     1     1     1     1     1
     1     1     1     1     1     1     1     1     1     1
     1     1     1     1     1     1     1     1     1     1
     1     1     1     1     1     1     1     1     1     1
     1     1     1     1     1     1     1     1     1     1
     1     1     1     1     1     1     1     1     1     1
     1     1     1     1     1     1     1     1     1     1
     1     1     1     1     1     1     1     1     1     1
     1     1     1     1     1     1     1     1     1     1
     1     1     1     1     1     1     1     1     1     1
     1     1     1     1     1     1     1     1     1     1
     1     1     1     1     1     1     1     1     1     1
     1     1     1     1     1     1     1     1     1     1
     1     1     1     1     1     1     1     1     1     1
     1     1     1     1     1     1     1     1     1     1
     1     1     1     1     1     1     1     1     1     1
     1     1     1     1     1     1     1     1     1     1
     1     1     1     1     1     1     1     1     1     1
     1     1     1     1     1     1     1     1     1     1
     1     1     1     1     1     1     1     1     1     1
     1     1     1     1     1     1     1     1     1     1
     1     1     1     1     1     1     1     1     1     1
     1     1     1     1     1     1     1     1     1     1
     1     1     1     1     1     1     1     1     1     1
     1     1     1     1     1     1     1     1     1     1
     1     1     1     1     1     1     1     1     1     1
     1     1     1     1     1     1     1     1     1     1
     1     1     1     1     1     1     1     1     1     1
     1     1     1     1     1     1     1     1     1     1
     1     1     1     1     1     1     1     1     1     1
     1     1     1     1     1     1     1     1     1     1
     1     1     1     1     1     1     1     1     1     1
     1     1     1     1     1     1     1     1     1     1
     1     1     1     1     1     1     1     1     1     1
     1     1     1     1     1     1     1     1     1     1
     1     1     1     1     1     1     1     1     1     1
     1     1     1     1     1     1     1     1     1     1
     1     1     1     1     1     1     1     1     1     1
     1     1     1     1     1     1     1     1     1     1
     1     1     1     1     1     1     1     1     1     1
     1     1     1     1     1     1     1     1     1     1
     1     1     1     1     1     1     1     1     1     1
     1     1     1     1     1     1     1     1     1     1
     1     1     1     1     1     1     1     1     1     1
     1     1     1     1     1     1     1     1     1     1
     1     1     1     1     1     1     1     1     1     1
     1     1     1     1     1     1     1     1     1     1
     1     1     1     1     1     1     1     1     1     1
     1     1     1     1     1     1     1     1     1     1
     1     1     1     1     1     1     1     1     1     1
     1     1     1     1     1     1     1     1     1     1
     1     1     1     1     1     1     1     1     1     1
     1     1     1     1     1     1     1     1     1     1
     1     1     1     1     1     1     1     1     1     1
     1     1     1     1     1     1     1     1     1     1
     1     1     1     1     1     1     1     1     1     1
     1     1     1     1     1     1     1     1     1     1
     1     1     1     1     1     1     1     1     1     1
     1     1     1     1     1     1     1     1     1     1
     1     1     1     1     1     1     1     1     1     1
 -9.999900000000E+002  # HNOFLO
INTERNAL 1.0 (FREE)       12 # STRT
  5.100000000000E+001   5.100000000000E+001   5.100000000000E+001   5.100000000000E+001   5.100000000000E+001   5.100000000000E+001   5.100000000000E+001   5.100000000000E+001   5.100000000000E+001   5.100000000000E+001 
  5.100000000000E+001   5.100000000000E+001   5.100000000000E+001   5.100000000000E+001   5.100000000000E+001   5.100000000000E+001   5.100000000000E+001   5.100000000000E+001   5.100000000000E+001   5.100000000000E+001 
  5.100000000000E+001   5.100000000000E+001   5.100000000000E+001   5.100000000000E+001   5.100000000000E+001   5.100000000000E+001   5.100000000000E+001   5.100000000000E+001   5.100000000000E+001   5.100000000000E+001 
  5.100000000000E+001   5.100000000000E+001   5.100000000000E+001   5.100000000000E+001   5.100000000000E+001   5.100000000000E+001   5.100000000000E+001   5.100000000000E+001   5.100000000000E+001   5.100000000000E+001 
  5.100000000000E+001   5.100000000000E+001   5.100000000000E+001   5.100000000000E+001   5.100000000000E+001   5.100000000000E+001   5.100000000000E+001   5.100000000000E+001   5.100000000000E+001   5.100000000000E+001 
  5.100000000000E+001   5.100000000000E+001   5.100000000000E+001   5.100000000000E+001   5.100000000000E+001   5.100000000000E+001   5.100000000000E+001   5.100000000000E+001   5.100000000000E+001   5.100000000000E+001 
  5.100000000000E+001   5.100000000000E+001   5.100000000000E+001   5.100000000000E+001   5.100000000000E+001   5.100000000000E+001   5.100000000000E+001   5.100000000000E+001   5.100000000000E+001   5.100000000000E+001 
  5.100000000000E+001   5.100000000000E+001   5.100000000000E+001   5.100000000000E+001   5.100000000000E+001   5.100000000000E+001   5.100000000000E+001   5.100000000000E+001   5.100000000000E+001   5.100000000000E+001 
  5.100000000000E+001   5.100000000000E+001   5.100000000000E+001   5.100000000000E+001   5.100000000000E+001   5.100000000000E+001   5.100000000000E+001   5.100000000000E+001   5.100000000000E+001   5.100000000000E+001 
  5.100000000000E+001   5.100000000000E+001   5.100000000000E+001   5.100000000000E+001   5.100000000000E+001   5.100000000000E+001   5.100000000000E+001   5.100000000000E+001   5.100000000000E+001   5.100000000000E+001 
  5.100000000000E+001   5.100000000000E+001   5.100000000000E+001   5.100000000000E+001   5.100000000000E+001   5.100000000000E+001   5.100000000000E+001   5.100000000000E+001   5.100000000000E+001   5.100000000000E+001 
  5.100000000000E+001   5.100000000000E+001   5.100000000000E+001   5.100000000000E+001   5.100000000000E+001   5.100000000000E+001   5.100000000000E+001   5.100000000000E+001   5.100000000000E+001   5.100000000000E+001 
  5.100000000000E+001   5.100000000000E+001   5.100000000000E+001   5.100000000000E+001   5.100000000000E+001   5.100000000000E+001   5.100000000000E+001   5.100000000000E+001   5.100000000000E+001   5.100000000000E+001 
  5.100000000000E+001   5.100000000000E+001   5.100000000000E+001   5.100000000000E+001   5.100000000000E+001   5.100000000000E+001   5.100000000000E+001   5.100000000000E+001   5.100000000000E+001   5.100000000000E+001 
  5.100000000000E+001   5.100000000000E+001   5.100000000000E+001   5.100000000000E+001   5.100000000000E+001   5.100000000000E+001   5.100000000000E+001   5.100000000000E+001   5.100000000000E+001   5.100000000000E+001 
  5.100000000000E+001   5.100000000000E+001   5.100000000000E+001   5.100000000000E+001   5.100000000000E+001   5.100000000000E+001   5.100000000000E+001   5.100000000000E+001   5.100000000000E+001   5.100000000000E+001 
  5.100000000000E+001   5.100000000000E+001   5.100000000000E+001   5.100000000000E+001   5.100000000000E+001   5.100000000000E+001   5.100000000000E+001   5.100000000000E+001   5.100000000000E+001   5.100000000000E+001 
  5.100000000000E+001   5.100000000000E+001   5.100000000000E+001   5.100000000000E+001   5.100000000000E+001   5.100000000000E+001   5.100000000000E+001   5.100000000000E+001   5.100000000000E+001   5.100000000000E+001 
  5.100000000000E+001   5.100000000000E+001   5.100000000000E+001   5.100000000000E+001   5.100000000000E+001   5.100000000000E+001   5.100000000000E+001   5.100000000000E+001   5.100000000000E+001   5.100000000000E+001 
  5.100000000000E+001   5.100000000000E+001   5.100000000000E+001   5.100000000000E+001   5.100000000000E+001   5.100000000000E+001   5.100000000000E+001   5.100000000000E+001   5.100000000000E+001   5.100000000000E+001 
  5.100000000000E+001   5.100000000000E+001   5.100000000000E+001   5.100000000000E+001   5.100000000000E+001   5.100000000000E+001   5.100000000000E+001   5.100000000000E+001   5.100000000000E+001   5.100000000000E+001 
  5.100000000000E+001   5.100000000000E+001   5.100000000000E+001   5.100000000000E+001   5.100000000000E+001   5.100000000000E+001   5.100000000000E+001   5.100000000000E+001   5.100000000000E+001   5.100000000000E+001 
  5.100000000000E+001   5.100000000000E+001   5.100000000000E+001   5.100000000000E+001   5.100000000000E+001   5.100000000000E+001   5.100000000000E+001   5.100000000000E+001   5.100000000000E+001   5.100000000000E+001 
  5.100000000000E+001   5.100000000000E+001   5.100000000000E+001   5.100000000000E+001   5.100000000000E+001   5.100000000000E+001   5.100000000000E+001   5.100000000000E+001   5.100000000000E+001   5.100000000000E+001 
  5.100000000000E+001   5.100000000000E+001   5.100000000000E+001   5.100000000000E+001   5.100000000000E+001   5.100000000000E+001   5.100000000000E+001   5.100000000000E+001   5.100000000000E+001   5.100000000000E+001 
  5.100000000000E+001   5.100000000000E+001   5.100000000000E+001   5.100000000000E+001   5.100000000000E+001   5.100000000000E+001   5.100000000000E+001   5.100000000000E+001   5.100000000000E+001   5.100000000000E+001 
  5.100000000000E+001   5.100000000000E+001   5.100000000000E+001   5.100000000000E+001   5.100000000000E+001   5.100000000000E+001   5.100000000000E+001   5.100000000000E+001   5.100000000000E+001   5.100000000000E+001 
  5.100000000000E+001   5.100000000000E+001   5.100000000000E+001   5.100000000000E+001   5.100000000000E+001   5.100000000000E+001   5.100000000000E+001   5.100000000000E+001   5.100000000000E+001   5.100000000000E+001 
  5.100000000000E+001   5.100000000000E+001   5.100000000000E+001   5.100000000000E+001   5.100000000000E+001   5.100000000000E+001   5.100000000000E+001   5.100000000000E+001   5.100000000000E+001   5.100000000000E+001 
  5.100000000000E+001   5.100000000000E+001   5.100000000000E+001   5.100000000000E+001   5.100000000000E+001   5.100000000000E+001   5.100000000000E+001   5.100000000000E+001   5.100000000000E+001   5.100000000000E+001 
  5.100000000000E+001   5.100000000000E+001   5.100000000000E+001   5.100000000000E+001   5.100000000000E+001   5.100000000000E+001   5.100000000000E+001   5.100000000000E+001   5.100000000000E+001   5.100000000000E+001 
  5.100000000000E+001   5.100000000000E+001   5.100000000000E+001   5.100000000000E+001   5.100000000000E+001   5.100000000000E+001   5.100000000000E+001   5.100000000000E+001   5.100000000000E+001   5.100000000000E+001 
  5.100000000000E+001   5.100000000000E+001   5.100000000000E+001   5.100000000000E+001   5.100000000000E+001   5.100000000000E+001   5.100000000000E+001   5.100000000000E+001   5.100000000000E+001   5.100000000000E+001 
  5.100000000000E+001   5.100000000000E+001   5.100000000000E+001   5.100000000000E+001   5.100000000000E+001   5.100000000000E+001   5.100000000000E+001   5.100000000000E+001   5.100000000000E+001   5.100000000000E+001 
  5.100000000000E+001   5.100000000000E+001   5.100000000000E+001   5.100000000000E+001   5.100000000000E+001   5.100000000000E+001   5.100000000000E+001   5.100000000000E+001   5.100000000000E+001   5.100000000000E+001 
  5.100000000000E+001   5.100000000000E+001   5.100000000000E+001   5.100000000000E+001   5.100000000000E+001   5.100000000000E+001   5.100000000000E+001   5.100000000000E+001   5.100000000000E+001   5.100000000000E+001 
  5.100000000000E+001   5.100000000000E+001   5.100000000000E+001   5.100000000000E+001   5.100000000000E+001   5.100000000000E+001   5.100000000000E+001   5.100000000000E+001   5.100000000000E+001   5.100000000000E+001 
  5.100000000000E+001   5.100000000000E+001   5.100000000000E+001   5.100000000000E+001   5.100000000000E+001   5.100000000000E+001   5.100000000000E+001   5.100000000000E+001   5.100000000000E+001   5.100000000000E+001 
  5.100000000000E+001   5.100000000000E+001   5.100000000000E+001   5.100000000000E+001   5.100000000000E+001   5.100000000000E+001   5.100000000000E+001   5.100000000000E+001   5.100000000000E+001   5.100000000000E+001 
  5.100000000000E+001   5.100000000000E+001   5.100000000000E+001   5.100000000000E+001   5.100000000000E+001   5.100000000000E+001   5.100000000000E+001   5.100000000000E+001   5.100000000000E+001   5.100000000000E+001 
  5.100000000000E+001   5.100000000000E+001   5.100000000000E+001   5.100000000000E+001   5.100000000000E+001   5.100000000000E+001   5.100000000000E+001   5.100000000000E+001   5.100000000000E+001   5.100000000000E+001 
  5.100000000000E+001   5.100000000000E+001   5.100000000000E+001   5.100000000000E+001   5.100000000000E+001   5.100000000000E+001   5.100000000000E+001   5.100000000000E+001   5.100000000000E+001   5.100000000000E+001 
  5.100000000000E+001   5.100000000000E+001   5.100000000000E+001   5.100000000000E+001   5.100000000000E+001   5.100000000000E+001   5.100000000000E+001   5.100000000000E+001   5.100000000000E+001   5.100000000000E+001 
  5.100000000000E+001   5.100000000000E+001   5.100000000000E+001   5.100000000000E+001   5.100000000000E+001   5.100000000000E+001   5.100000000000E+001   5.100000000000E+001   5.100000000000E+001   5.100000000000E+001 
  5.100000000000E+001   5.100000000000E+001   5.100000000000E+001   5.100000000000E+001   5.100000000000E+001   5.100000000000E+001   5.100000000000E+001   5.100000000000E+001   5.100000000000E+001   5.100000000000E+001 
  5.100000000000E+001   5.100000000000E+001   5.100000000000E+001   5.100000000000E+001   5.100000000000E+001   5.100000000000E+001   5.100000000000E+001   5.100000000000E+001   5.100000000000E+001   5.100000000000E+001 
  5.100000000000E+001   5.100000000000E+001   5.100000000000E+001   5.100000000000E+001   5.100000000000E+001   5.100000000000E+001   5.100000000000E+001   5.100000000000E+001   5.100000000000E+001   5.100000000000E+001 
  5.100000000000E+001   5.100000000000E+001   5.100000000000E+001   5.100000000000E+001   5.100000000000E+001   5.100000000000E+001   5.100000000000E+001   5.100000000000E+001   5.100000000000E+001   5.100000000000E+001 
  5.100000000000E+001   5.100000000000E+001   5.100000000000E+001   5.100000000000E+001   5.100000000000E+001   5.100000000000E+001   5.100000000000E+001   5.100000000000E+001   5.100000000000E+001   5.100000000000E+001 
  5.100000000000E+001   5.100000000000E+001   5.100000000000E+001   5.100000000000E+001   5.100000000000E+001   5.100000000000E+001   5.100000000000E+001   5.100000000000E+001   5.100000000000E+001   5.100000000000E+001 
  5.100000000000E+001   5.100000000000E+001   5.100000000000E+001   5.100000000000E+001   5.100000000000E+001   5.100000000000E+001   5.100000000000E+001   5.100000000000E+001   5.100000000000E+001   5.100000000000E+001 
  5.100000000000E+001   5.100000000000E+001   5.100000000000E+001   5.100000000000E+001   5.100000000000E+001   5.100000000000E+001   5.100000000000E+001   5.100000000000E+001   5.100000000000E+001   5.100000000000E+001 
  5.100000000000E+001   5.100000000000E+001   5.100000000000E+001   5.100000000000E+001   5.100000000000E+001   5.100000000000E+001   5.100000000000E+001   5.100000000000E+001   5.100000000000E+001   5.100000000000E+001 
  5.100000000000E+001   5.100000000000E+001   5.100000000000E+001   5.100000000000E+001   5.100000000000E+001   5.100000000000E+001   5.100000000000E+001   5.100000000000E+001   5.100000000000E+001   5.100000000000E+001 
  5.100000000000E+001   5.100000000000E+001   5.100000000000E+001   5.100000000000E+001   5.100000000000E+001   5.100000000000E+001   5.100000000000E+001   5.100000000000E+001   5.100000000000E+001   5.100000000000E+001 
  5.100000000000E+001   5.100000000000E+001   5.100000000000E+001   5.100000000000E+001   5.100000000000E+001   5.100000000000E+001   5.100000000000E+001   5.100000000000E+001   5.100000000000E+001   5.100000000000E+001 
  5.100000000000E+001   5.100000000000E+001   5.100000000000E+001   5.100000000000E+001   5.100000000000E+001   5.100000000000E+001   5.100000000000E+001   5.100000000000E+001   5.100000000000E+001   5.100000000000E+001 
  5.100000000000E+001   5.100000000000E+001   5.100000000000E+001   5.100000000000E+001   5.100000000000E+001   5.100000000000E+001   5.100000000000E+001   5.100000000000E+001   5.100000000000E+001   5.100000000000E+001 
  5.100000000000E+001   5.100000000000E+001   5.100000000000E+001   5.100000000000E+001   5.100000000000E+001   5.100000000000E+001   5.100000000000E+001   5.100000000000E+001   5.100000000000E+001   5.100000000000E+001 
  5.100000000000E+001   5.100000000000E+001   5.100000000000E+001   5.100000000000E+001   5.100000000000E+001   5.100000000000E+001   5.100000000000E+001   5.100000000000E+001   5.100000000000E+001   5.100000000000E+001 
