# GHB: General-Head Boundary package file created on 12/12/2015 by ModelMuse version 3.6.3.5.
# GHB for MODFLOW, generated by Flopy.
    30     9 AUXILIARY IFACE # DataSet 2: MXACTC IGHBCB Option
    30     0 # Data Set 5: ITMP NP Stress period 1
     1     1     1  5.000000000000E+001   4.000000000000E-001      0 # Data Set 6: Layer Row Column Bhead Cond IFACE
     1     1     2  5.000000000000E+001   4.000000000000E-001      0 # Data Set 6: Layer Row Column Bhead Cond IFACE
     1     1     3  5.000000000000E+001   4.000000000000E-001      0 # Data Set 6: Layer Row Column Bhead Cond IFACE
     1     1     4  5.000000000000E+001   4.000000000000E-001      0 # Data Set 6: Layer Row Column Bhead Cond IFACE
     1     1     5  5.000000000000E+001   4.000000000000E-001      0 # Data Set 6: Layer Row Column Bhead Cond IFACE
     1     1     6  5.000000000000E+001   4.000000000000E-001      0 # Data Set 6: Layer Row Column Bhead Cond IFACE
     1     1     7  5.000000000000E+001   4.000000000000E-001      0 # Data Set 6: Layer Row Column Bhead Cond IFACE
     1     1     8  5.000000000000E+001   4.000000000000E-001      0 # Data Set 6: Layer Row Column Bhead Cond IFACE
     1     1     9  5.000000000000E+001   4.000000000000E-001      0 # Data Set 6: Layer Row Column Bhead Cond IFACE
     1     1    10  5.000000000000E+001   4.000000000000E-001      0 # Data Set 6: Layer Row Column Bhead Cond IFACE
     1     1    11  5.000000000000E+001   4.000000000000E-001      0 # Data Set 6: Layer Row Column Bhead Cond IFACE
     1     1    12  5.000000000000E+001   4.000000000000E-001      0 # Data Set 6: Layer Row Column Bhead Cond IFACE
     1     1    13  5.000000000000E+001   4.000000000000E-001      0 # Data Set 6: Layer Row Column Bhead Cond IFACE
     1     1    14  5.000000000000E+001   4.000000000000E-001      0 # Data Set 6: Layer Row Column Bhead Cond IFACE
     1     1    15  5.000000000000E+001   4.000000000000E-001      0 # Data Set 6: Layer Row Column Bhead Cond IFACE
     1     1    16  5.000000000000E+001   4.000000000000E-001      0 # Data Set 6: Layer Row Column Bhead Cond IFACE
     1     1    17  5.000000000000E+001   4.000000000000E-001      0 # Data Set 6: Layer Row Column Bhead Cond IFACE
     1     1    18  5.000000000000E+001   4.000000000000E-001      0 # Data Set 6: Layer Row Column Bhead Cond IFACE
     1     1    19  5.000000000000E+001   4.000000000000E-001      0 # Data Set 6: Layer Row Column Bhead Cond IFACE
     1     1    20  5.000000000000E+001   4.000000000000E-001      0 # Data Set 6: Layer Row Column Bhead Cond IFACE
     1     1    21  5.000000000000E+001   4.000000000000E-001      0 # Data Set 6: Layer Row Column Bhead Cond IFACE
     1     1    22  5.000000000000E+001   4.000000000000E-001      0 # Data Set 6: Layer Row Column Bhead Cond IFACE
     1     1    23  5.000000000000E+001   4.000000000000E-001      0 # Data Set 6: Layer Row Column Bhead Cond IFACE
     1     1    24  5.000000000000E+001   4.000000000000E-001      0 # Data Set 6: Layer Row Column Bhead Cond IFACE
     1     1    25  5.000000000000E+001   4.000000000000E-001      0 # Data Set 6: Layer Row Column Bhead Cond IFACE
     1     1    26  5.000000000000E+001   4.000000000000E-001      0 # Data Set 6: Layer Row Column Bhead Cond IFACE
     1     1    27  5.000000000000E+001   4.000000000000E-001      0 # Data Set 6: Layer Row Column Bhead Cond IFACE
     1     1    28  5.000000000000E+001   4.000000000000E-001      0 # Data Set 6: Layer Row Column Bhead Cond IFACE
     1     1    29  5.000000000000E+001   4.000000000000E-001      0 # Data Set 6: Layer Row Column Bhead Cond IFACE
     1     1    30  5.000000000000E+001   4.000000000000E-001      0 # Data Set 6: Layer Row Column Bhead Cond IFACE
