# Name File for MODFLOW created on 2/1/2017 by ModelMuse Version 3.8.1.27
LIST             11 ..\..\output\output.SwtTest\SwtTest.lst REPLACE
DATA(BINARY)      9 ..\..\output\output.SwtTest\SwtTest.cbc REPLACE
DIS              12 ..\..\model\model.SwtTest\SwtTest.dis OLD
BAS6             13 ..\..\model\model.SwtTest\SwtTest.bas OLD
OC               39 ..\..\model\model.SwtTest\SwtTest.oc OLD
DATA             37 ..\..\output\output.SwtTest\SwtTest.fhd REPLACE
DATA             38 ..\..\output\output.SwtTest\SwtTest.fdn REPLACE
SIP              35 ..\..\model\model.SwtTest\SwtTest.sip OLD
LPF              14 ..\..\model\model.SwtTest\SwtTest.lpf OLD
CHD              17 ..\..\model\model.SwtTest\SwtTest.chd OLD
WEL              20 ..\..\model\model.SwtTest\SwtTest.wel OLD
SWT              68 ..\..\model\model.SwtTest\SwtTest.swt OLD
DATA(BINARY)    116 ..\..\output\output.SwtTest\SwtTest.Swt_Out REPLACE
