# Name File for MODFLOW created on 12/14/2015 by ModelMuse
LIST             11 TestIntersectedAndEnclosedInSameObject.lst REPLACE
DATA(BINARY)      9 TestIntersectedAndEnclosedInSameObject.cbc REPLACE
DIS              12 TestIntersectedAndEnclosedInSameObject.dis OLD
BAS6             13 TestIntersectedAndEnclosedInSameObject.bas OLD
OC               39 TestIntersectedAndEnclosedInSameObject.oc OLD
DATA             37 TestIntersectedAndEnclosedInSameObject.fhd REPLACE
DATA             38 TestIntersectedAndEnclosedInSameObject.fdn REPLACE
PCG              18 TestIntersectedAndEnclosedInSameObject.pcg OLD
LPF              14 TestIntersectedAndEnclosedInSameObject.lpf OLD
