# Name File for MODFLOW created on 12/14/2015 by ModelMuse
LIST             11 testEts3.lst REPLACE
DATA(BINARY)      9 testEts3.cbc REPLACE
DIS              12 testEts3.dis OLD
BAS6             13 testEts3.bas OLD
OC               39 testEts3.oc OLD
DATA             37 testEts3.fhd REPLACE
DATA             38 testEts3.fdn REPLACE
PCG              18 testEts3.pcg OLD
LPF              14 testEts3.lpf OLD
ETS              26 testEts3.ets OLD
ZONE             15 testEts3.zon OLD
MULT             16 testEts3.mlt OLD
PVAL             52 testEts3.pval OLD
