# Name File for MODFLOW created on 12/14/2015 by ModelMuse
LIST             11 testEts.lst REPLACE
DATA(BINARY)      9 testEts.cbc REPLACE
DIS              12 testEts.dis OLD
BAS6             13 testEts.bas OLD
OC               39 testEts.oc OLD
DATA             37 testEts.fhd REPLACE
DATA             38 testEts.fdn REPLACE
PCG              18 testEts.pcg OLD
LPF              14 testEts.lpf OLD
CHD              17 testEts.chd OLD
ETS              26 testEts.ets OLD
ZONE             15 testEts.zon OLD
MULT             16 testEts.mlt OLD
PVAL             52 testEts.pval OLD
