# Name File for MODFLOW created on 12/14/2015 by ModelMuse
LIST             11 testGlobal.lst REPLACE
DATA(BINARY)      9 testGlobal.cbc REPLACE
DIS              12 testGlobal.dis OLD
BAS6             13 testGlobal.bas OLD
OC               39 testGlobal.oc OLD
DATA             37 testGlobal.fhd REPLACE
DATA             38 testGlobal.fdn REPLACE
PCG              18 testGlobal.pcg OLD
LPF              14 testGlobal.lpf OLD
