# Name File for MODFLOW created on 12/14/2015 by ModelMuse
LIST             11 testEts2.lst REPLACE
DATA(BINARY)      9 testEts2.cbc REPLACE
DIS              12 testEts2.dis OLD
BAS6             13 testEts2.bas OLD
OC               39 testEts2.oc OLD
DATA             37 testEts2.fhd REPLACE
DATA             38 testEts2.fdn REPLACE
PCG              18 testEts2.pcg OLD
LPF              14 testEts2.lpf OLD
ETS              26 testEts2.ets OLD
ZONE             15 testEts2.zon OLD
MULT             16 testEts2.mlt OLD
PVAL             52 testEts2.pval OLD
