# Name File for MODFLOW created on 12/14/2015 by ModelMuse
LIST             11 testmodel.lst REPLACE
DATA(BINARY)      9 testmodel.cbc REPLACE
DIS              12 testmodel.dis OLD
BAS6             13 testmodel.bas OLD
OC               39 testmodel.oc OLD
DATA             37 testmodel.fhd REPLACE
DATA             38 testmodel.fdn REPLACE
PCG              18 testmodel.pcg OLD
LPF              14 testmodel.lpf OLD
