# Name File for MODFLOW created on 2/1/2017 by ModelMuse Version 3.8.1.27
LIST             11 ..\..\output\output.TestIntersectedAndEnclosedInSameObject\TestIntersectedAndEnclosedInSameObject.lst REPLACE
DATA(BINARY)      9 ..\..\output\output.TestIntersectedAndEnclosedInSameObject\TestIntersectedAndEnclosedInSameObject.cbc REPLACE
DIS              12 ..\..\model\model.TestIntersectedAndEnclosedInSameObject\TestIntersectedAndEnclosedInSameObject.dis OLD
BAS6             13 ..\..\model\model.TestIntersectedAndEnclosedInSameObject\TestIntersectedAndEnclosedInSameObject.bas OLD
OC               39 ..\..\model\model.TestIntersectedAndEnclosedInSameObject\TestIntersectedAndEnclosedInSameObject.oc OLD
DATA             37 ..\..\output\output.TestIntersectedAndEnclosedInSameObject\TestIntersectedAndEnclosedInSameObject.fhd REPLACE
DATA             38 ..\..\output\output.TestIntersectedAndEnclosedInSameObject\TestIntersectedAndEnclosedInSameObject.fdn REPLACE
PCG              18 ..\..\model\model.TestIntersectedAndEnclosedInSameObject\TestIntersectedAndEnclosedInSameObject.pcg OLD
LPF              14 ..\..\model\model.TestIntersectedAndEnclosedInSameObject\TestIntersectedAndEnclosedInSameObject.lpf OLD
