xul  0.000000000000E+000 
yul  0.000000000000E+000 
rotation  0.000000000000E+000 
length_units undefined
time_units days
start_date 12/30/1899
start_time 0:0:0
model MODFLOW-OWM
epsg 
