xul  2.951388888889E+000 
yul  8.840277777778E+002 
rotation  0.000000000000E+000 
length_units meters
time_units seconds
start_date 12/30/1899
start_time 0:0:0
model MODFLOW-2005
epsg 
