xul  1.499938566829E+001 
yul  1.456234228504E+001 
rotation -1.694009039178E+000 
length_units meters
time_units days
start_date 12/30/1899
start_time 0:0:0
model MODFLOW-2005
epsg 
