xul -1.256234375798E+002 
yul -1.704619682785E+002 
rotation  1.722263446866E+001 
length_units meters
time_units seconds
start_date 12/30/1899
start_time 0:0:0
model MODFLOW-2005
epsg 
