xul -1.408563820558E+002 
yul -2.011637612699E+002 
rotation  2.000000000000E+001 
length_units meters
time_units seconds
start_date 12/30/1899
start_time 0:0:0
model MODFLOW-2005
epsg 
