xul  0.000000000000E+000 
yul  1.100000000000E+003 
rotation  0.000000000000E+000 
length_units feet
time_units days
start_date 12/30/1899
start_time 0:0:0
model MODFLOW-LGR version 1
epsg 
