xul  0.000000000000E+000 
yul  1.000000000000E+000 
rotation  0.000000000000E+000 
length_units meters
time_units days
start_date 1/30/2025
start_time 0:0:0
model MODFLOW 6
epsg N/A
