xul  1.696201027453E+003 
yul  8.473293097137E+003 
rotation  0.000000000000E+000 
length_units meters
time_units seconds
start_date 12/30/1899
start_time 0:0:0
model MODFLOW-2005
epsg 
