xul -1.405967459664E+002 
yul -2.006076002013E+002 
rotation  1.995026633552E+001 
length_units meters
time_units seconds
start_date 12/30/1899
start_time 0:0:0
model MODFLOW-2005
epsg 
