xul -3.500000000000E+002 
yul  3.500000000000E+002 
rotation  0.000000000000E+000 
length_units meters
time_units seconds
start_date 1/1/2000
start_time 0:0:0
model MODFLOW-2005
epsg 
