# Name File for MODFLOW created on 12/14/2015 by ModelMuse
LIST             11 UzfAdd.lst REPLACE
DATA(BINARY)      9 UzfAdd.cbc REPLACE
DIS              12 UzfAdd.dis OLD
BAS6             13 UzfAdd.bas OLD
OC               39 UzfAdd.oc OLD
DATA             37 UzfAdd.fhd REPLACE
DATA             38 UzfAdd.fdn REPLACE
PCG              18 UzfAdd.pcg OLD
LPF              14 UzfAdd.lpf OLD
RCH              24 UzfAdd.rch OLD
UZF              31 UzfAdd.uzf OLD
