# LGR Control File for MODFLOW-LGR created on 4/5/2023 by ModelMuse
LGR
     2 # NGRIDS
UzfSfrLgrTest.nam # NAME FILE
PARENTONLY
   131   132 # Data set 5 IUPBHSV, IUPBFSV
..\..\model\model.UzfSfrLgrTest_Child_1\UzfSfrLgrTest_Child_1.nam # Data set 6 NAME FILE
CHILDONLY # Data set 7 GRIDSTATUS
     0     2  1131  1132 # Data set 8 ISHFLG IBFLG IUCBHSV IUCBFSV
    20     1 # Data set 9 MXLGRITER IOUTLGR
  5.000000000000E-001   5.000000000000E-001  # Data set 10 RELAXH RELAXF
  5.000000000000E-004   5.000000000000E-003  # Data set 11 HCLOSELGR FCLOSELGR
     1     5     6 # Data set 12 NPLBEG NPRBEG NPCBEG
     2    13    15 # Data set 13 NPLEND NPREND NPCEND
     3 # Data set 14 NCPP
     1     1 # Data set 15 NCPPL
