# Name File for MODFLOW created on 4/5/2023 by ModelMuse Version 5.1.1.21
LIST           1011 ..\..\output\output.UzfSfrLgrTest_Child_1\UzfSfrLgrTest_Child_1.lst REPLACE
DATA(BINARY)   1009 ..\..\output\output.UzfSfrLgrTest_Child_1\UzfSfrLgrTest_Child_1.cbc REPLACE
DATA           1131 ..\..\output\output.UzfSfrLgrTest_Child_1\UzfSfrLgrTest_Child_1.bfh_head REPLACE
DATA           1132 ..\..\output\output.UzfSfrLgrTest_Child_1\UzfSfrLgrTest_Child_1.bfh_flux REPLACE
SFR            1029 ..\..\model\model.UzfSfrLgrTest_Child_1\UzfSfrLgrTest_Child_1.sfr OLD
DATA          20208 ..\..\output\output.UzfSfrLgrTest_Child_1\UzfSfrLgrTest_Child_1.sfrg1 REPLACE
DATA          20209 ..\..\output\output.UzfSfrLgrTest_Child_1\UzfSfrLgrTest_Child_1.sfrg2 REPLACE
UZF            1031 ..\..\model\model.UzfSfrLgrTest_Child_1\UzfSfrLgrTest_Child_1.uzf OLD
DIS            1012 ..\..\model\model.UzfSfrLgrTest_Child_1\UzfSfrLgrTest_Child_1.dis OLD
BAS6           1013 ..\..\model\model.UzfSfrLgrTest_Child_1\UzfSfrLgrTest_Child_1.bas OLD
OC             1039 ..\..\model\model.UzfSfrLgrTest_Child_1\UzfSfrLgrTest_Child_1.oc OLD
DATA           1037 ..\..\output\output.UzfSfrLgrTest_Child_1\UzfSfrLgrTest_Child_1.fhd REPLACE
DATA           1038 ..\..\output\output.UzfSfrLgrTest_Child_1\UzfSfrLgrTest_Child_1.fdn REPLACE
PCG            1018 ..\..\model\model.UzfSfrLgrTest_Child_1\UzfSfrLgrTest_Child_1.pcg OLD
LPF            1014 ..\..\model\model.UzfSfrLgrTest_Child_1\UzfSfrLgrTest_Child_1.lpf OLD
CHD            1017 ..\..\model\model.UzfSfrLgrTest_Child_1\UzfSfrLgrTest_Child_1.chd OLD
GAGE           1040 ..\..\model\model.UzfSfrLgrTest_Child_1\UzfSfrLgrTest_Child_1.gag OLD
