# Name File for MODFLOW created on 4/5/2023 by ModelMuse Version 5.1.1.21
LIST           1011 UzfSfrLgrTest_Child_1.lst REPLACE
DATA(BINARY)   1009 UzfSfrLgrTest_Child_1.cbc REPLACE
DATA           1131 UzfSfrLgrTest_Child_1.bfh_head REPLACE
DATA           1132 UzfSfrLgrTest_Child_1.bfh_flux REPLACE
SFR            1029 UzfSfrLgrTest_Child_1.sfr OLD
DATA          20208 UzfSfrLgrTest_Child_1.sfrg1 REPLACE
DATA          20209 UzfSfrLgrTest_Child_1.sfrg2 REPLACE
UZF            1031 UzfSfrLgrTest_Child_1.uzf OLD
DIS            1012 UzfSfrLgrTest_Child_1.dis OLD
BAS6           1013 UzfSfrLgrTest_Child_1.bas OLD
OC             1039 UzfSfrLgrTest_Child_1.oc OLD
DATA           1037 UzfSfrLgrTest_Child_1.fhd REPLACE
DATA           1038 UzfSfrLgrTest_Child_1.fdn REPLACE
PCG            1018 UzfSfrLgrTest_Child_1.pcg OLD
LPF            1014 UzfSfrLgrTest_Child_1.lpf OLD
CHD            1017 UzfSfrLgrTest_Child_1.chd OLD
GAGE           1040 UzfSfrLgrTest_Child_1.gag OLD
