# Name File for MODFLOW created on 4/5/2023 by ModelMuse Version 5.1.1.21
LIST             11 ..\..\output\output.UzfSfrLgrTest\UzfSfrLgrTest.lst REPLACE
DATA(BINARY)      9 ..\..\output\output.UzfSfrLgrTest\UzfSfrLgrTest.cbc REPLACE
DATA            131 ..\..\output\output.UzfSfrLgrTest\UzfSfrLgrTest.bfh_head REPLACE
DATA            132 ..\..\output\output.UzfSfrLgrTest\UzfSfrLgrTest.bfh_flux REPLACE
DIS              12 ..\..\model\model.UzfSfrLgrTest\UzfSfrLgrTest.dis OLD
BAS6             13 ..\..\model\model.UzfSfrLgrTest\UzfSfrLgrTest.bas OLD
OC               39 ..\..\model\model.UzfSfrLgrTest\UzfSfrLgrTest.oc OLD
DATA             37 ..\..\output\output.UzfSfrLgrTest\UzfSfrLgrTest.fhd REPLACE
DATA             38 ..\..\output\output.UzfSfrLgrTest\UzfSfrLgrTest.fdn REPLACE
PCG              18 ..\..\model\model.UzfSfrLgrTest\UzfSfrLgrTest.pcg OLD
LPF              14 ..\..\model\model.UzfSfrLgrTest\UzfSfrLgrTest.lpf OLD
CHD              17 ..\..\model\model.UzfSfrLgrTest\UzfSfrLgrTest.chd OLD
SFR              29 ..\..\model\model.UzfSfrLgrTest\UzfSfrLgrTest.sfr OLD
DATA          20205 ..\..\output\output.UzfSfrLgrTest\UzfSfrLgrTest.sfrg1 REPLACE
DATA          20206 ..\..\output\output.UzfSfrLgrTest\UzfSfrLgrTest.sfrg2 REPLACE
UZF              31 ..\..\model\model.UzfSfrLgrTest\UzfSfrLgrTest.uzf OLD
GAGE             40 ..\..\model\model.UzfSfrLgrTest\UzfSfrLgrTest.gag OLD
