# Name File for MODFLOW created on 4/5/2023 by ModelMuse Version 5.1.1.21
LIST             11 UzfSfrLgrTest.lst REPLACE
DATA(BINARY)      9 UzfSfrLgrTest.cbc REPLACE
DATA            131 UzfSfrLgrTest.bfh_head REPLACE
DATA            132 UzfSfrLgrTest.bfh_flux REPLACE
DIS              12 UzfSfrLgrTest.dis OLD
BAS6             13 UzfSfrLgrTest.bas OLD
OC               39 UzfSfrLgrTest.oc OLD
DATA             37 UzfSfrLgrTest.fhd REPLACE
DATA             38 UzfSfrLgrTest.fdn REPLACE
PCG              18 UzfSfrLgrTest.pcg OLD
LPF              14 UzfSfrLgrTest.lpf OLD
CHD              17 UzfSfrLgrTest.chd OLD
SFR              29 UzfSfrLgrTest.sfr OLD
DATA          20205 UzfSfrLgrTest.sfrg1 REPLACE
DATA          20206 UzfSfrLgrTest.sfrg2 REPLACE
UZF              31 UzfSfrLgrTest.uzf OLD
GAGE             40 UzfSfrLgrTest.gag OLD
