# TDIS file created on 7/2/2024 by ModelMuse version 5.2.0.18.

BEGIN OPTIONS
  TIME_UNITS seconds
END OPTIONS

BEGIN DIMENSIONS
  NPER     2
END DIMENSIONS

BEGIN PERIODDATA
    1.000000000000E+000      1  1.000000000000E+000  # perlen nstp tsmult, Stress period      1 Time = -1.000000000000E+000  -  0.000000000000E+000 
    1.000000000000E+003    100  1.000000000000E+000  # perlen nstp tsmult, Stress period      2 Time =  0.000000000000E+000  -  1.000000000000E+003 
END PERIODDATA
