BEGIN TIMING
  TDIS6 'UztTimeSeries.tdis'
END TIMING

BEGIN MODELS
  GWF6 'UztTimeSeries.nam' 'MODFLOW'
  GWT6 'UztTimeSeries.Chem.Gwt_nam' 'Chem'
END MODELS

BEGIN EXCHANGES
  GWF6-GWT6 UztTimeSeries.Chem.gwfgwt MODFLOW Chem
END EXCHANGES

BEGIN SOLUTIONGROUP     1
  MXITER     1
  IMS6 'UztTimeSeries.ims' 'MODFLOW' 
  IMS6 'UztTimeSeries.Chem.ims' 'Chem' 
END SOLUTIONGROUP

