# Initial concentration file for Chem file created on 10/3/2022 by ModelMuse version 5.0.0.28.
BEGIN GRIDDATA
  STRT LAYERED IPRN    12
    CONSTANT   0.000000000000E+000  # STRT Layer1

    CONSTANT   0.000000000000E+000  # STRT Layer2

    CONSTANT   0.000000000000E+000  # STRT Layer3

    CONSTANT   0.000000000000E+000  # STRT Layer4

    CONSTANT   0.000000000000E+000  # STRT Layer5

    CONSTANT   0.000000000000E+000  # STRT Layer6

    CONSTANT   0.000000000000E+000  # STRT Layer7

    CONSTANT   0.000000000000E+000  # STRT Layer8

    CONSTANT   0.000000000000E+000  # STRT Layer9

    CONSTANT   0.000000000000E+000  # STRT Layer10

    CONSTANT   0.000000000000E+000  # STRT Layer11

    CONSTANT   0.000000000000E+000  # STRT Layer12

    CONSTANT   0.000000000000E+000  # STRT Layer13

    CONSTANT   0.000000000000E+000  # STRT Layer14

    CONSTANT   0.000000000000E+000  # STRT Layer15

    CONSTANT   0.000000000000E+000  # STRT Layer16

    CONSTANT   0.000000000000E+000  # STRT Layer17

    CONSTANT   0.000000000000E+000  # STRT Layer18

    CONSTANT   0.000000000000E+000  # STRT Layer19

    CONSTANT   0.000000000000E+000  # STRT Layer20

END GRIDDATA

