# Name File for MODFLOW created on 7/2/2024 by ModelMuse Version 5.2.0.18
BEGIN OPTIONS
  LIST ..\..\output\output.UztTimeSeriesTest\UztTimeSeriesTest.lst
  PRINT_INPUT
  SAVE_FLOWS
END OPTIONS

BEGIN PACKAGES
  DIS6         ..\..\model\model.UztTimeSeriesTest\UztTimeSeriesTest.dis  DIS
  IC6          ..\..\model\model.UztTimeSeriesTest\UztTimeSeriesTest.ic  IC
  NPF6         ..\..\model\model.UztTimeSeriesTest\UztTimeSeriesTest.npf  NPF
  STO6         ..\..\model\model.UztTimeSeriesTest\UztTimeSeriesTest.sto  STO
  OC6          ..\..\model\model.UztTimeSeriesTest\UztTimeSeriesTest.oc  OC
  CHD6         ..\..\model\model.UztTimeSeriesTest\UztTimeSeriesTest.chd  CHD-1
  UZF6         ..\..\model\model.UztTimeSeriesTest\UztTimeSeriesTest.uzf  UZF-1
END PACKAGES
