# DSP: GWT Dispersion Package file created on 7/2/2024 by ModelMuse version 5.2.0.18.
BEGIN OPTIONS
END OPTIONS

BEGIN GRIDDATA
  DIFFC LAYERED IPRN    12
    CONSTANT   0.000000000000E+000  # DIFFC 1

    CONSTANT   0.000000000000E+000  # DIFFC 2

    CONSTANT   0.000000000000E+000  # DIFFC 3

  ALH LAYERED IPRN    12
    CONSTANT   1.000000000000E+001  # ALH 1

    CONSTANT   1.000000000000E+001  # ALH 2

    CONSTANT   1.000000000000E+001  # ALH 3

  ATH1 LAYERED IPRN    12
    CONSTANT   1.000000000000E+000  # ATH1 1

    CONSTANT   1.000000000000E+000  # ATH1 2

    CONSTANT   1.000000000000E+000  # ATH1 3

END GRIDDATA

