# UZF6: Unsaturated-Zone Flow Package for MODFLOW 6 file created on 7/2/2024 by ModelMuse version 5.2.0.18.
BEGIN OPTIONS
    FLOW_PACKAGE_NAME UZF-1
    FLOW_PACKAGE_AUXILIARY_NAME  Chem
    BOUNDNAMES
    TS6 FILEIN UztTimeSeries.Chem.uzt.MyGroup.ts
    PRINT_INPUT
    SAVE_FLOWS
    CONCENTRATION FILEOUT UztTimeSeries.Chem.uzt_conc
    BUDGET FILEOUT UztTimeSeries.Chem.uzt_budget
END OPTIONS

BEGIN PACKAGEDATA
# <uzfno> <strt> [<aux(naux)>] [<boundname>
       1  0.000000000000E+000  UZF_Top_Left
       2  0.000000000000E+000  UZF_Top_Left
       3  0.000000000000E+000  UZF_Top_Left
       4  0.000000000000E+000  UZF_Top_Left
       5  0.000000000000E+000  UZF_Top_Left
       6  0.000000000000E+000  UZF_Top_Left
       7  0.000000000000E+000  UZF_Top_Left
       8  0.000000000000E+000  UZF_Top_Left
       9  0.000000000000E+000  UZF_Top_Left
      10  0.000000000000E+000  UZF_Top_Left
      11  0.000000000000E+000  UZF_Top_Left
      12  0.000000000000E+000  UZF_Top_Left
      13  0.000000000000E+000  UZF_Top_Left
      14  0.000000000000E+000  UZF_Top_Center
      15  0.000000000000E+000  UZF_Top_Center
      16  0.000000000000E+000  UZF_Top_Center
      17  0.000000000000E+000  UZF_Top_Center
      18  0.000000000000E+000  UZF_Top_Center
      19  0.000000000000E+000  UZF_Top_Center
      20  0.000000000000E+000  UZF_Top_Center
      21  0.000000000000E+000  UZF_Top_Center
      22  0.000000000000E+000  UZF_Top_Center
      23  0.000000000000E+000  UZF_Top_Center
      24  0.000000000000E+000  UZF_Top_Center
      25  0.000000000000E+000  Uzf_Top_Right
      26  0.000000000000E+000  Uzf_Top_Right
      27  0.000000000000E+000  Uzf_Top_Right
      28  0.000000000000E+000  Uzf_Top_Right
      29  0.000000000000E+000  Uzf_Top_Right
      30  0.000000000000E+000  Uzf_Top_Right
      31  0.000000000000E+000  Uzf_Top_Right
      32  0.000000000000E+000  Uzf_Top_Right
      33  0.000000000000E+000  Uzf_Top_Right
      34  0.000000000000E+000  Uzf_Top_Right
      35  0.000000000000E+000  Uzf_Top_Right
      36  0.000000000000E+000  Uzf_Top_Right
      37  0.000000000000E+000  Uzf_Top_Right
      38  0.000000000000E+000  Uzf_Top_Right
      39  0.000000000000E+000  UZF_Bottom
      40  0.000000000000E+000  UZF_Bottom
      41  0.000000000000E+000  UZF_Bottom
      42  0.000000000000E+000  UZF_Bottom
      43  0.000000000000E+000  UZF_Bottom
      44  0.000000000000E+000  UZF_Bottom
      45  0.000000000000E+000  UZF_Bottom
      46  0.000000000000E+000  UZF_Bottom
      47  0.000000000000E+000  UZF_Bottom
      48  0.000000000000E+000  UZF_Bottom
      49  0.000000000000E+000  UZF_Bottom
      50  0.000000000000E+000  UZF_Bottom
      51  0.000000000000E+000  UZF_Bottom
      52  0.000000000000E+000  UZF_Bottom
      53  0.000000000000E+000  UZF_Bottom
      54  0.000000000000E+000  UZF_Bottom
      55  0.000000000000E+000  UZF_Bottom
      56  0.000000000000E+000  UZF_Bottom
      57  0.000000000000E+000  UZF_Bottom
      58  0.000000000000E+000  UZF_Bottom
      59  0.000000000000E+000  UZF_Bottom
      60  0.000000000000E+000  UZF_Bottom
      61  0.000000000000E+000  UZF_Bottom
      62  0.000000000000E+000  UZF_Bottom
      63  0.000000000000E+000  UZF_Bottom
      64  0.000000000000E+000  UZF_Bottom
      65  0.000000000000E+000  UZF_Bottom
      66  0.000000000000E+000  UZF_Bottom
      67  0.000000000000E+000  UZF_Bottom
      68  0.000000000000E+000  UZF_Bottom
      69  0.000000000000E+000  UZF_Bottom
      70  0.000000000000E+000  UZF_Bottom
      71  0.000000000000E+000  UZF_Bottom
      72  0.000000000000E+000  UZF_Bottom
      73  0.000000000000E+000  UZF_Bottom
      74  0.000000000000E+000  UZF_Bottom
      75  0.000000000000E+000  UZF_Bottom
      76  0.000000000000E+000  UZF_Bottom
      77  0.000000000000E+000  UZF_Bottom
      78  0.000000000000E+000  UZF_Bottom
      79  0.000000000000E+000  UZF_Bottom
      80  0.000000000000E+000  UZF_Bottom
      81  0.000000000000E+000  UZF_Bottom
      82  0.000000000000E+000  UZF_Bottom
      83  0.000000000000E+000  UZF_Bottom
      84  0.000000000000E+000  UZF_Bottom
      85  0.000000000000E+000  UZF_Bottom
      86  0.000000000000E+000  UZF_Bottom
      87  0.000000000000E+000  UZF_Bottom
      88  0.000000000000E+000  UZF_Bottom
      89  0.000000000000E+000  UZF_Bottom
      90  0.000000000000E+000  UZF_Bottom
      91  0.000000000000E+000  UZF_Bottom
      92  0.000000000000E+000  UZF_Bottom
      93  0.000000000000E+000  UZF_Bottom
      94  0.000000000000E+000  UZF_Bottom
      95  0.000000000000E+000  UZF_Bottom
      96  0.000000000000E+000  UZF_Bottom
      97  0.000000000000E+000  UZF_Bottom
      98  0.000000000000E+000  UZF_Bottom
      99  0.000000000000E+000  UZF_Bottom
     100  0.000000000000E+000  UZF_Bottom
     101  0.000000000000E+000  UZF_Bottom
     102  0.000000000000E+000  UZF_Bottom
     103  0.000000000000E+000  UZF_Bottom
     104  0.000000000000E+000  UZF_Bottom
     105  0.000000000000E+000  UZF_Bottom
     106  0.000000000000E+000  UZF_Bottom
     107  0.000000000000E+000  UZF_Bottom
     108  0.000000000000E+000  UZF_Bottom
     109  0.000000000000E+000  UZF_Bottom
     110  0.000000000000E+000  UZF_Bottom
     111  0.000000000000E+000  UZF_Bottom
     112  0.000000000000E+000  UZF_Bottom
     113  0.000000000000E+000  UZF_Bottom
     114  0.000000000000E+000  UZF_Bottom
     115  0.000000000000E+000  UZF_Bottom
     116  0.000000000000E+000  UZF_Bottom
     117  0.000000000000E+000  UZF_Bottom
     118  0.000000000000E+000  UZF_Bottom
     119  0.000000000000E+000  UZF_Bottom
     120  0.000000000000E+000  UZF_Bottom
     121  0.000000000000E+000  UZF_Bottom
     122  0.000000000000E+000  UZF_Bottom
     123  0.000000000000E+000  UZF_Bottom
     124  0.000000000000E+000  UZF_Bottom
     125  0.000000000000E+000  UZF_Bottom
     126  0.000000000000E+000  UZF_Bottom
     127  0.000000000000E+000  UZF_Bottom
     128  0.000000000000E+000  UZF_Bottom
     129  0.000000000000E+000  UZF_Bottom
     130  0.000000000000E+000  UZF_Bottom
     131  0.000000000000E+000  UZF_Bottom
     132  0.000000000000E+000  UZF_Bottom
     133  0.000000000000E+000  UZF_Bottom
     134  0.000000000000E+000  UZF_Bottom
     135  0.000000000000E+000  UZF_Bottom
     136  0.000000000000E+000  UZF_Bottom
     137  0.000000000000E+000  UZF_Bottom
     138  0.000000000000E+000  UZF_Bottom
     139  0.000000000000E+000  UZF_Bottom
     140  0.000000000000E+000  UZF_Bottom
     141  0.000000000000E+000  UZF_Bottom
     142  0.000000000000E+000  UZF_Bottom
     143  0.000000000000E+000  UZF_Bottom
     144  0.000000000000E+000  UZF_Bottom
     145  0.000000000000E+000  UZF_Bottom
     146  0.000000000000E+000  UZF_Bottom
     147  0.000000000000E+000  UZF_Bottom
     148  0.000000000000E+000  UZF_Bottom
     149  0.000000000000E+000  UZF_Bottom
     150  0.000000000000E+000  UZF_Bottom
     151  0.000000000000E+000  UZF_Bottom
     152  0.000000000000E+000  UZF_Bottom
     153  0.000000000000E+000  UZF_Bottom
     154  0.000000000000E+000  UZF_Bottom
     155  0.000000000000E+000  UZF_Bottom
     156  0.000000000000E+000  UZF_Bottom
     157  0.000000000000E+000  UZF_Bottom
     158  0.000000000000E+000  UZF_Bottom
     159  0.000000000000E+000  UZF_Bottom
     160  0.000000000000E+000  UZF_Bottom
     161  0.000000000000E+000  UZF_Bottom
     162  0.000000000000E+000  UZF_Bottom
     163  0.000000000000E+000  UZF_Bottom
     164  0.000000000000E+000  UZF_Bottom
     165  0.000000000000E+000  UZF_Bottom
     166  0.000000000000E+000  UZF_Bottom
     167  0.000000000000E+000  UZF_Bottom
     168  0.000000000000E+000  UZF_Bottom
     169  0.000000000000E+000  UZF_Bottom
     170  0.000000000000E+000  UZF_Bottom
     171  0.000000000000E+000  UZF_Bottom
     172  0.000000000000E+000  UZF_Bottom
     173  0.000000000000E+000  UZF_Bottom
     174  0.000000000000E+000  UZF_Bottom
     175  0.000000000000E+000  UZF_Bottom
     176  0.000000000000E+000  UZF_Bottom
     177  0.000000000000E+000  UZF_Bottom
     178  0.000000000000E+000  UZF_Bottom
     179  0.000000000000E+000  UZF_Bottom
     180  0.000000000000E+000  UZF_Bottom
     181  0.000000000000E+000  UZF_Bottom
     182  0.000000000000E+000  UZF_Bottom
     183  0.000000000000E+000  UZF_Bottom
     184  0.000000000000E+000  UZF_Bottom
     185  0.000000000000E+000  UZF_Bottom
     186  0.000000000000E+000  UZF_Bottom
     187  0.000000000000E+000  UZF_Bottom
     188  0.000000000000E+000  UZF_Bottom
     189  0.000000000000E+000  UZF_Bottom
     190  0.000000000000E+000  UZF_Bottom
     191  0.000000000000E+000  UZF_Bottom
     192  0.000000000000E+000  UZF_Bottom
     193  0.000000000000E+000  UZF_Bottom
     194  0.000000000000E+000  UZF_Bottom
     195  0.000000000000E+000  UZF_Bottom
     196  0.000000000000E+000  UZF_Bottom
     197  0.000000000000E+000  UZF_Bottom
     198  0.000000000000E+000  UZF_Bottom
     199  0.000000000000E+000  UZF_Bottom
     200  0.000000000000E+000  UZF_Bottom
     201  0.000000000000E+000  UZF_Bottom
     202  0.000000000000E+000  UZF_Bottom
     203  0.000000000000E+000  UZF_Bottom
     204  0.000000000000E+000  UZF_Bottom
     205  0.000000000000E+000  UZF_Bottom
     206  0.000000000000E+000  UZF_Bottom
     207  0.000000000000E+000  UZF_Bottom
     208  0.000000000000E+000  UZF_Bottom
     209  0.000000000000E+000  UZF_Bottom
     210  0.000000000000E+000  UZF_Bottom
     211  0.000000000000E+000  UZF_Bottom
     212  0.000000000000E+000  UZF_Bottom
     213  0.000000000000E+000  UZF_Bottom
     214  0.000000000000E+000  UZF_Bottom
     215  0.000000000000E+000  UZF_Bottom
     216  0.000000000000E+000  UZF_Bottom
     217  0.000000000000E+000  UZF_Bottom
     218  0.000000000000E+000  UZF_Bottom
     219  0.000000000000E+000  UZF_Bottom
     220  0.000000000000E+000  UZF_Bottom
     221  0.000000000000E+000  UZF_Bottom
     222  0.000000000000E+000  UZF_Bottom
     223  0.000000000000E+000  UZF_Bottom
     224  0.000000000000E+000  UZF_Bottom
     225  0.000000000000E+000  UZF_Bottom
     226  0.000000000000E+000  UZF_Bottom
     227  0.000000000000E+000  UZF_Bottom
     228  0.000000000000E+000  UZF_Bottom
     229  0.000000000000E+000  UZF_Bottom
     230  0.000000000000E+000  UZF_Bottom
     231  0.000000000000E+000  UZF_Bottom
     232  0.000000000000E+000  UZF_Bottom
     233  0.000000000000E+000  UZF_Bottom
     234  0.000000000000E+000  UZF_Bottom
     235  0.000000000000E+000  UZF_Bottom
     236  0.000000000000E+000  UZF_Bottom
     237  0.000000000000E+000  UZF_Bottom
     238  0.000000000000E+000  UZF_Bottom
     239  0.000000000000E+000  UZF_Bottom
     240  0.000000000000E+000  UZF_Bottom
     241  0.000000000000E+000  UZF_Bottom
     242  0.000000000000E+000  UZF_Bottom
     243  0.000000000000E+000  UZF_Bottom
     244  0.000000000000E+000  UZF_Bottom
     245  0.000000000000E+000  UZF_Bottom
     246  0.000000000000E+000  UZF_Bottom
     247  0.000000000000E+000  UZF_Bottom
     248  0.000000000000E+000  UZF_Bottom
     249  0.000000000000E+000  UZF_Bottom
     250  0.000000000000E+000  UZF_Bottom
     251  0.000000000000E+000  UZF_Bottom
     252  0.000000000000E+000  UZF_Bottom
     253  0.000000000000E+000  UZF_Bottom
     254  0.000000000000E+000  UZF_Bottom
     255  0.000000000000E+000  UZF_Bottom
     256  0.000000000000E+000  UZF_Bottom
     257  0.000000000000E+000  UZF_Bottom
     258  0.000000000000E+000  UZF_Bottom
     259  0.000000000000E+000  UZF_Bottom
     260  0.000000000000E+000  UZF_Bottom
     261  0.000000000000E+000  UZF_Bottom
     262  0.000000000000E+000  UZF_Bottom
     263  0.000000000000E+000  UZF_Bottom
     264  0.000000000000E+000  UZF_Bottom
     265  0.000000000000E+000  UZF_Bottom
     266  0.000000000000E+000  UZF_Bottom
     267  0.000000000000E+000  UZF_Bottom
     268  0.000000000000E+000  UZF_Bottom
     269  0.000000000000E+000  UZF_Bottom
     270  0.000000000000E+000  UZF_Bottom
     271  0.000000000000E+000  UZF_Bottom
     272  0.000000000000E+000  UZF_Bottom
     273  0.000000000000E+000  UZF_Bottom
     274  0.000000000000E+000  UZF_Bottom
     275  0.000000000000E+000  UZF_Bottom
     276  0.000000000000E+000  UZF_Bottom
     277  0.000000000000E+000  UZF_Bottom
     278  0.000000000000E+000  UZF_Bottom
     279  0.000000000000E+000  UZF_Bottom
     280  0.000000000000E+000  UZF_Bottom
     281  0.000000000000E+000  UZF_Bottom
     282  0.000000000000E+000  UZF_Bottom
     283  0.000000000000E+000  UZF_Bottom
     284  0.000000000000E+000  UZF_Bottom
     285  0.000000000000E+000  UZF_Bottom
     286  0.000000000000E+000  UZF_Bottom
     287  0.000000000000E+000  UZF_Bottom
     288  0.000000000000E+000  UZF_Bottom
     289  0.000000000000E+000  UZF_Bottom
     290  0.000000000000E+000  UZF_Bottom
     291  0.000000000000E+000  UZF_Bottom
     292  0.000000000000E+000  UZF_Bottom
     293  0.000000000000E+000  UZF_Bottom
     294  0.000000000000E+000  UZF_Bottom
     295  0.000000000000E+000  UZF_Bottom
     296  0.000000000000E+000  UZF_Bottom
     297  0.000000000000E+000  UZF_Bottom
     298  0.000000000000E+000  UZF_Bottom
     299  0.000000000000E+000  UZF_Bottom
     300  0.000000000000E+000  UZF_Bottom
     301  0.000000000000E+000  UZF_Bottom
     302  0.000000000000E+000  UZF_Bottom
     303  0.000000000000E+000  UZF_Bottom
     304  0.000000000000E+000  UZF_Bottom
     305  0.000000000000E+000  UZF_Bottom
     306  0.000000000000E+000  UZF_Bottom
     307  0.000000000000E+000  UZF_Bottom
     308  0.000000000000E+000  UZF_Bottom
     309  0.000000000000E+000  UZF_Bottom
     310  0.000000000000E+000  UZF_Bottom
     311  0.000000000000E+000  UZF_Bottom
     312  0.000000000000E+000  UZF_Bottom
     313  0.000000000000E+000  UZF_Bottom
     314  0.000000000000E+000  UZF_Bottom
     315  0.000000000000E+000  UZF_Bottom
     316  0.000000000000E+000  UZF_Bottom
     317  0.000000000000E+000  UZF_Bottom
     318  0.000000000000E+000  UZF_Bottom
     319  0.000000000000E+000  UZF_Bottom
     320  0.000000000000E+000  UZF_Bottom
     321  0.000000000000E+000  UZF_Bottom
     322  0.000000000000E+000  UZF_Bottom
     323  0.000000000000E+000  UZF_Bottom
     324  0.000000000000E+000  UZF_Bottom
     325  0.000000000000E+000  UZF_Bottom
     326  0.000000000000E+000  UZF_Bottom
     327  0.000000000000E+000  UZF_Bottom
     328  0.000000000000E+000  UZF_Bottom
     329  0.000000000000E+000  UZF_Bottom
     330  0.000000000000E+000  UZF_Bottom
     331  0.000000000000E+000  UZF_Bottom
     332  0.000000000000E+000  UZF_Bottom
     333  0.000000000000E+000  UZF_Bottom
     334  0.000000000000E+000  UZF_Bottom
     335  0.000000000000E+000  UZF_Bottom
     336  0.000000000000E+000  UZF_Bottom
     337  0.000000000000E+000  UZF_Bottom
     338  0.000000000000E+000  UZF_Bottom
     339  0.000000000000E+000  UZF_Bottom
     340  0.000000000000E+000  UZF_Bottom
     341  0.000000000000E+000  UZF_Bottom
     342  0.000000000000E+000  UZF_Bottom
     343  0.000000000000E+000  UZF_Bottom
     344  0.000000000000E+000  UZF_Bottom
     345  0.000000000000E+000  UZF_Bottom
     346  0.000000000000E+000  UZF_Bottom
     347  0.000000000000E+000  UZF_Bottom
     348  0.000000000000E+000  UZF_Bottom
     349  0.000000000000E+000  UZF_Bottom
     350  0.000000000000E+000  UZF_Bottom
     351  0.000000000000E+000  UZF_Bottom
     352  0.000000000000E+000  UZF_Bottom
     353  0.000000000000E+000  UZF_Bottom
     354  0.000000000000E+000  UZF_Bottom
     355  0.000000000000E+000  UZF_Bottom
     356  0.000000000000E+000  UZF_Bottom
     357  0.000000000000E+000  UZF_Bottom
     358  0.000000000000E+000  UZF_Bottom
     359  0.000000000000E+000  UZF_Bottom
     360  0.000000000000E+000  UZF_Bottom
     361  0.000000000000E+000  UZF_Bottom
     362  0.000000000000E+000  UZF_Bottom
     363  0.000000000000E+000  UZF_Bottom
     364  0.000000000000E+000  UZF_Bottom
     365  0.000000000000E+000  UZF_Bottom
     366  0.000000000000E+000  UZF_Bottom
     367  0.000000000000E+000  UZF_Bottom
     368  0.000000000000E+000  UZF_Bottom
     369  0.000000000000E+000  UZF_Bottom
     370  0.000000000000E+000  UZF_Bottom
     371  0.000000000000E+000  UZF_Bottom
     372  0.000000000000E+000  UZF_Bottom
     373  0.000000000000E+000  UZF_Bottom
     374  0.000000000000E+000  UZF_Bottom
     375  0.000000000000E+000  UZF_Bottom
     376  0.000000000000E+000  UZF_Bottom
     377  0.000000000000E+000  UZF_Bottom
     378  0.000000000000E+000  UZF_Bottom
     379  0.000000000000E+000  UZF_Bottom
     380  0.000000000000E+000  UZF_Bottom
     381  0.000000000000E+000  UZF_Bottom
     382  0.000000000000E+000  UZF_Bottom
     383  0.000000000000E+000  UZF_Bottom
     384  0.000000000000E+000  UZF_Bottom
     385  0.000000000000E+000  UZF_Bottom
     386  0.000000000000E+000  UZF_Bottom
     387  0.000000000000E+000  UZF_Bottom
     388  0.000000000000E+000  UZF_Bottom
     389  0.000000000000E+000  UZF_Bottom
     390  0.000000000000E+000  UZF_Bottom
     391  0.000000000000E+000  UZF_Bottom
     392  0.000000000000E+000  UZF_Bottom
     393  0.000000000000E+000  UZF_Bottom
     394  0.000000000000E+000  UZF_Bottom
     395  0.000000000000E+000  UZF_Bottom
     396  0.000000000000E+000  UZF_Bottom
     397  0.000000000000E+000  UZF_Bottom
     398  0.000000000000E+000  UZF_Bottom
     399  0.000000000000E+000  UZF_Bottom
     400  0.000000000000E+000  UZF_Bottom
     401  0.000000000000E+000  UZF_Bottom
     402  0.000000000000E+000  UZF_Bottom
     403  0.000000000000E+000  UZF_Bottom
     404  0.000000000000E+000  UZF_Bottom
     405  0.000000000000E+000  UZF_Bottom
     406  0.000000000000E+000  UZF_Bottom
     407  0.000000000000E+000  UZF_Bottom
     408  0.000000000000E+000  UZF_Bottom
     409  0.000000000000E+000  UZF_Bottom
     410  0.000000000000E+000  UZF_Bottom
     411  0.000000000000E+000  UZF_Bottom
     412  0.000000000000E+000  UZF_Bottom
     413  0.000000000000E+000  UZF_Bottom
     414  0.000000000000E+000  UZF_Bottom
     415  0.000000000000E+000  UZF_Bottom
     416  0.000000000000E+000  UZF_Bottom
     417  0.000000000000E+000  UZF_Bottom
     418  0.000000000000E+000  UZF_Bottom
     419  0.000000000000E+000  UZF_Bottom
     420  0.000000000000E+000  UZF_Bottom
     421  0.000000000000E+000  UZF_Bottom
     422  0.000000000000E+000  UZF_Bottom
     423  0.000000000000E+000  UZF_Bottom
     424  0.000000000000E+000  UZF_Bottom
     425  0.000000000000E+000  UZF_Bottom
     426  0.000000000000E+000  UZF_Bottom
     427  0.000000000000E+000  UZF_Bottom
     428  0.000000000000E+000  UZF_Bottom
     429  0.000000000000E+000  UZF_Bottom
     430  0.000000000000E+000  UZF_Bottom
     431  0.000000000000E+000  UZF_Bottom
     432  0.000000000000E+000  UZF_Bottom
     433  0.000000000000E+000  UZF_Bottom
     434  0.000000000000E+000  UZF_Bottom
     435  0.000000000000E+000  UZF_Bottom
     436  0.000000000000E+000  UZF_Bottom
     437  0.000000000000E+000  UZF_Bottom
     438  0.000000000000E+000  UZF_Bottom
     439  0.000000000000E+000  UZF_Bottom
     440  0.000000000000E+000  UZF_Bottom
     441  0.000000000000E+000  UZF_Bottom
     442  0.000000000000E+000  UZF_Bottom
     443  0.000000000000E+000  UZF_Bottom
     444  0.000000000000E+000  UZF_Bottom
     445  0.000000000000E+000  UZF_Bottom
     446  0.000000000000E+000  UZF_Bottom
     447  0.000000000000E+000  UZF_Bottom
     448  0.000000000000E+000  UZF_Bottom
     449  0.000000000000E+000  UZF_Bottom
     450  0.000000000000E+000  UZF_Bottom
     451  0.000000000000E+000  UZF_Bottom
     452  0.000000000000E+000  UZF_Bottom
     453  0.000000000000E+000  UZF_Bottom
     454  0.000000000000E+000  UZF_Bottom
     455  0.000000000000E+000  UZF_Bottom
     456  0.000000000000E+000  UZF_Bottom
     457  0.000000000000E+000  UZF_Bottom
     458  0.000000000000E+000  UZF_Bottom
     459  0.000000000000E+000  UZF_Bottom
     460  0.000000000000E+000  UZF_Bottom
     461  0.000000000000E+000  UZF_Bottom
     462  0.000000000000E+000  UZF_Bottom
     463  0.000000000000E+000  UZF_Bottom
     464  0.000000000000E+000  UZF_Bottom
     465  0.000000000000E+000  UZF_Bottom
     466  0.000000000000E+000  UZF_Bottom
     467  0.000000000000E+000  UZF_Bottom
     468  0.000000000000E+000  UZF_Bottom
     469  0.000000000000E+000  UZF_Bottom
     470  0.000000000000E+000  UZF_Bottom
     471  0.000000000000E+000  UZF_Bottom
     472  0.000000000000E+000  UZF_Bottom
     473  0.000000000000E+000  UZF_Bottom
     474  0.000000000000E+000  UZF_Bottom
     475  0.000000000000E+000  UZF_Bottom
     476  0.000000000000E+000  UZF_Bottom
     477  0.000000000000E+000  UZF_Bottom
     478  0.000000000000E+000  UZF_Bottom
     479  0.000000000000E+000  UZF_Bottom
     480  0.000000000000E+000  UZF_Bottom
     481  0.000000000000E+000  UZF_Bottom
     482  0.000000000000E+000  UZF_Bottom
     483  0.000000000000E+000  UZF_Bottom
     484  0.000000000000E+000  UZF_Bottom
     485  0.000000000000E+000  UZF_Bottom
     486  0.000000000000E+000  UZF_Bottom
     487  0.000000000000E+000  UZF_Bottom
     488  0.000000000000E+000  UZF_Bottom
     489  0.000000000000E+000  UZF_Bottom
     490  0.000000000000E+000  UZF_Bottom
     491  0.000000000000E+000  UZF_Bottom
     492  0.000000000000E+000  UZF_Bottom
     493  0.000000000000E+000  UZF_Bottom
     494  0.000000000000E+000  UZF_Bottom
     495  0.000000000000E+000  UZF_Bottom
     496  0.000000000000E+000  UZF_Bottom
     497  0.000000000000E+000  UZF_Bottom
     498  0.000000000000E+000  UZF_Bottom
     499  0.000000000000E+000  UZF_Bottom
     500  0.000000000000E+000  UZF_Bottom
     501  0.000000000000E+000  UZF_Bottom
     502  0.000000000000E+000  UZF_Bottom
     503  0.000000000000E+000  UZF_Bottom
     504  0.000000000000E+000  UZF_Bottom
     505  0.000000000000E+000  UZF_Bottom
     506  0.000000000000E+000  UZF_Bottom
     507  0.000000000000E+000  UZF_Bottom
     508  0.000000000000E+000  UZF_Bottom
     509  0.000000000000E+000  UZF_Bottom
     510  0.000000000000E+000  UZF_Bottom
     511  0.000000000000E+000  UZF_Bottom
     512  0.000000000000E+000  UZF_Bottom
     513  0.000000000000E+000  UZF_Bottom
     514  0.000000000000E+000  UZF_Bottom
     515  0.000000000000E+000  UZF_Bottom
     516  0.000000000000E+000  UZF_Bottom
     517  0.000000000000E+000  UZF_Bottom
     518  0.000000000000E+000  UZF_Bottom
     519  0.000000000000E+000  UZF_Bottom
     520  0.000000000000E+000  UZF_Bottom
     521  0.000000000000E+000  UZF_Bottom
     522  0.000000000000E+000  UZF_Bottom
     523  0.000000000000E+000  UZF_Bottom
     524  0.000000000000E+000  UZF_Bottom
     525  0.000000000000E+000  UZF_Bottom
     526  0.000000000000E+000  UZF_Bottom
     527  0.000000000000E+000  UZF_Bottom
     528  0.000000000000E+000  UZF_Bottom
     529  0.000000000000E+000  UZF_Bottom
     530  0.000000000000E+000  UZF_Bottom
     531  0.000000000000E+000  UZF_Bottom
     532  0.000000000000E+000  UZF_Bottom
     533  0.000000000000E+000  UZF_Bottom
     534  0.000000000000E+000  UZF_Bottom
     535  0.000000000000E+000  UZF_Bottom
     536  0.000000000000E+000  UZF_Bottom
     537  0.000000000000E+000  UZF_Bottom
     538  0.000000000000E+000  UZF_Bottom
     539  0.000000000000E+000  UZF_Bottom
     540  0.000000000000E+000  UZF_Bottom
     541  0.000000000000E+000  UZF_Bottom
     542  0.000000000000E+000  UZF_Bottom
     543  0.000000000000E+000  UZF_Bottom
     544  0.000000000000E+000  UZF_Bottom
     545  0.000000000000E+000  UZF_Bottom
     546  0.000000000000E+000  UZF_Bottom
     547  0.000000000000E+000  UZF_Bottom
     548  0.000000000000E+000  UZF_Bottom
     549  0.000000000000E+000  UZF_Bottom
     550  0.000000000000E+000  UZF_Bottom
     551  0.000000000000E+000  UZF_Bottom
     552  0.000000000000E+000  UZF_Bottom
     553  0.000000000000E+000  UZF_Bottom
     554  0.000000000000E+000  UZF_Bottom
     555  0.000000000000E+000  UZF_Bottom
     556  0.000000000000E+000  UZF_Bottom
     557  0.000000000000E+000  UZF_Bottom
     558  0.000000000000E+000  UZF_Bottom
     559  0.000000000000E+000  UZF_Bottom
     560  0.000000000000E+000  UZF_Bottom
     561  0.000000000000E+000  UZF_Bottom
     562  0.000000000000E+000  UZF_Bottom
     563  0.000000000000E+000  UZF_Bottom
     564  0.000000000000E+000  UZF_Bottom
     565  0.000000000000E+000  UZF_Bottom
     566  0.000000000000E+000  UZF_Bottom
     567  0.000000000000E+000  UZF_Bottom
     568  0.000000000000E+000  UZF_Bottom
     569  0.000000000000E+000  UZF_Bottom
     570  0.000000000000E+000  UZF_Bottom
     571  0.000000000000E+000  UZF_Bottom
     572  0.000000000000E+000  UZF_Bottom
     573  0.000000000000E+000  UZF_Bottom
     574  0.000000000000E+000  UZF_Bottom
     575  0.000000000000E+000  UZF_Bottom
     576  0.000000000000E+000  UZF_Bottom
     577  0.000000000000E+000  UZF_Bottom
     578  0.000000000000E+000  UZF_Bottom
     579  0.000000000000E+000  UZF_Bottom
     580  0.000000000000E+000  UZF_Bottom
     581  0.000000000000E+000  UZF_Bottom
     582  0.000000000000E+000  UZF_Bottom
     583  0.000000000000E+000  UZF_Bottom
     584  0.000000000000E+000  UZF_Bottom
     585  0.000000000000E+000  UZF_Bottom
     586  0.000000000000E+000  UZF_Bottom
     587  0.000000000000E+000  UZF_Bottom
     588  0.000000000000E+000  UZF_Bottom
     589  0.000000000000E+000  UZF_Bottom
     590  0.000000000000E+000  UZF_Bottom
     591  0.000000000000E+000  UZF_Bottom
     592  0.000000000000E+000  UZF_Bottom
     593  0.000000000000E+000  UZF_Bottom
     594  0.000000000000E+000  UZF_Bottom
     595  0.000000000000E+000  UZF_Bottom
     596  0.000000000000E+000  UZF_Bottom
     597  0.000000000000E+000  UZF_Bottom
     598  0.000000000000E+000  UZF_Bottom
     599  0.000000000000E+000  UZF_Bottom
     600  0.000000000000E+000  UZF_Bottom
     601  0.000000000000E+000  UZF_Bottom
     602  0.000000000000E+000  UZF_Bottom
     603  0.000000000000E+000  UZF_Bottom
     604  0.000000000000E+000  UZF_Bottom
     605  0.000000000000E+000  UZF_Bottom
     606  0.000000000000E+000  UZF_Bottom
     607  0.000000000000E+000  UZF_Bottom
     608  0.000000000000E+000  UZF_Bottom
     609  0.000000000000E+000  UZF_Bottom
     610  0.000000000000E+000  UZF_Bottom
     611  0.000000000000E+000  UZF_Bottom
     612  0.000000000000E+000  UZF_Bottom
     613  0.000000000000E+000  UZF_Bottom
     614  0.000000000000E+000  UZF_Bottom
     615  0.000000000000E+000  UZF_Bottom
     616  0.000000000000E+000  UZF_Bottom
     617  0.000000000000E+000  UZF_Bottom
     618  0.000000000000E+000  UZF_Bottom
     619  0.000000000000E+000  UZF_Bottom
     620  0.000000000000E+000  UZF_Bottom
     621  0.000000000000E+000  UZF_Bottom
     622  0.000000000000E+000  UZF_Bottom
     623  0.000000000000E+000  UZF_Bottom
     624  0.000000000000E+000  UZF_Bottom
     625  0.000000000000E+000  UZF_Bottom
     626  0.000000000000E+000  UZF_Bottom
     627  0.000000000000E+000  UZF_Bottom
     628  0.000000000000E+000  UZF_Bottom
     629  0.000000000000E+000  UZF_Bottom
     630  0.000000000000E+000  UZF_Bottom
     631  0.000000000000E+000  UZF_Bottom
     632  0.000000000000E+000  UZF_Bottom
     633  0.000000000000E+000  UZF_Bottom
     634  0.000000000000E+000  UZF_Bottom
     635  0.000000000000E+000  UZF_Bottom
     636  0.000000000000E+000  UZF_Bottom
     637  0.000000000000E+000  UZF_Bottom
     638  0.000000000000E+000  UZF_Bottom
     639  0.000000000000E+000  UZF_Bottom
     640  0.000000000000E+000  UZF_Bottom
     641  0.000000000000E+000  UZF_Bottom
     642  0.000000000000E+000  UZF_Bottom
     643  0.000000000000E+000  UZF_Bottom
     644  0.000000000000E+000  UZF_Bottom
     645  0.000000000000E+000  UZF_Bottom
     646  0.000000000000E+000  UZF_Bottom
     647  0.000000000000E+000  UZF_Bottom
     648  0.000000000000E+000  UZF_Bottom
     649  0.000000000000E+000  UZF_Bottom
     650  0.000000000000E+000  UZF_Bottom
     651  0.000000000000E+000  UZF_Bottom
     652  0.000000000000E+000  UZF_Bottom
     653  0.000000000000E+000  UZF_Bottom
     654  0.000000000000E+000  UZF_Bottom
     655  0.000000000000E+000  UZF_Bottom
     656  0.000000000000E+000  UZF_Bottom
     657  0.000000000000E+000  UZF_Bottom
     658  0.000000000000E+000  UZF_Bottom
     659  0.000000000000E+000  UZF_Bottom
     660  0.000000000000E+000  UZF_Bottom
     661  0.000000000000E+000  UZF_Bottom
     662  0.000000000000E+000  UZF_Bottom
     663  0.000000000000E+000  UZF_Bottom
     664  0.000000000000E+000  UZF_Bottom
     665  0.000000000000E+000  UZF_Bottom
     666  0.000000000000E+000  UZF_Bottom
     667  0.000000000000E+000  UZF_Bottom
     668  0.000000000000E+000  UZF_Bottom
     669  0.000000000000E+000  UZF_Bottom
     670  0.000000000000E+000  UZF_Bottom
     671  0.000000000000E+000  UZF_Bottom
     672  0.000000000000E+000  UZF_Bottom
     673  0.000000000000E+000  UZF_Bottom
     674  0.000000000000E+000  UZF_Bottom
     675  0.000000000000E+000  UZF_Bottom
     676  0.000000000000E+000  UZF_Bottom
     677  0.000000000000E+000  UZF_Bottom
     678  0.000000000000E+000  UZF_Bottom
     679  0.000000000000E+000  UZF_Bottom
     680  0.000000000000E+000  UZF_Bottom
     681  0.000000000000E+000  UZF_Bottom
     682  0.000000000000E+000  UZF_Bottom
     683  0.000000000000E+000  UZF_Bottom
     684  0.000000000000E+000  UZF_Bottom
     685  0.000000000000E+000  UZF_Bottom
     686  0.000000000000E+000  UZF_Bottom
     687  0.000000000000E+000  UZF_Bottom
     688  0.000000000000E+000  UZF_Bottom
     689  0.000000000000E+000  UZF_Bottom
     690  0.000000000000E+000  UZF_Bottom
     691  0.000000000000E+000  UZF_Bottom
     692  0.000000000000E+000  UZF_Bottom
     693  0.000000000000E+000  UZF_Bottom
     694  0.000000000000E+000  UZF_Bottom
     695  0.000000000000E+000  UZF_Bottom
     696  0.000000000000E+000  UZF_Bottom
     697  0.000000000000E+000  UZF_Bottom
     698  0.000000000000E+000  UZF_Bottom
     699  0.000000000000E+000  UZF_Bottom
     700  0.000000000000E+000  UZF_Bottom