# UZF6: Unsaturated-Zone Flow Package for MODFLOW 6 file created on 7/2/2024 by ModelMuse version 5.2.0.18.
BEGIN OPTIONS
    PRINT_INPUT
    SAVE_FLOWS
  WATER_CONTENT FILEOUT UztTimeSeriesTest.water_content
  BUDGET FILEOUT UztTimeSeriesTest.uzf_budget
  PACKAGE_CONVERGENCE FILEOUT UztTimeSeriesTest.UzfConvergence.CSV
    BOUNDNAMES
    TS6 FILEIN UztTimeSeriesTest.uzf.UzfTimeSeries.ts
  AUXILIARY Chem
END OPTIONS

BEGIN DIMENSIONS
  NUZFCELLS     4
  NTRAILWAVES     7
  NWAVESETS    40
END DIMENSIONS

BEGIN PACKAGEDATA
# <iuzno> <cellid(ncelldim)> <landflag> <ivertcon> <surfdep> <vks> <thtr> <thts> <thti> <eps> [<boundname>]
       1     1     2     2     1     0  1.000000000000E+000   1.000000000000E-005   2.000000000000E-001   3.500000000000E-001   3.000000000000E-001   3.500000000000E+000  Uzf
       2     1     2     3     1     0  1.000000000000E+000   1.000000000000E-005   2.000000000000E-001   3.500000000000E-001   3.000000000000E-001   3.500000000000E+000  Uzf
       3     1     3     2     1     0  1.000000000000E+000   1.000000000000E-005   2.000000000000E-001   3.500000000000E-001   3.000000000000E-001   3.500000000000E+000  Uzf
       4     1     3     3     1     0  1.000000000000E+000   1.000000000000E-005   2.000000000000E-001   3.500000000000E-001   3.000000000000E-001   3.500000000000E+000  Uzf
END PACKAGEDATA

BEGIN PERIOD      1
       1 flow  0.000000000000E+000   0.000000000000E+000   0.000000000000E+000   0.000000000000E+000   0.000000000000E+000   0.000000000000E+000   0.000000000000E+000 
       2 flow  0.000000000000E+000   0.000000000000E+000   0.000000000000E+000   0.000000000000E+000   0.000000000000E+000   0.000000000000E+000   0.000000000000E+000 
       3 flow  0.000000000000E+000   0.000000000000E+000   0.000000000000E+000   0.000000000000E+000   0.000000000000E+000   0.000000000000E+000   0.000000000000E+000 
       4 flow  0.000000000000E+000   0.000000000000E+000   0.000000000000E+000   0.000000000000E+000   0.000000000000E+000   0.000000000000E+000   0.000000000000E+000 
END PERIOD 

BEGIN PERIOD      2
       1 flow  0.000000000000E+000   0.000000000000E+000   0.000000000000E+000   0.000000000000E+000   0.000000000000E+000   0.000000000000E+000   0.000000000000E+000 
       2 flow  0.000000000000E+000   0.000000000000E+000   0.000000000000E+000   0.000000000000E+000   0.000000000000E+000   0.000000000000E+000   0.000000000000E+000 
       3 flow  0.000000000000E+000   0.000000000000E+000   0.000000000000E+000   0.000000000000E+000   0.000000000000E+000   0.000000000000E+000   0.000000000000E+000 
       4 flow  0.000000000000E+000   0.000000000000E+000   0.000000000000E+000   0.000000000000E+000   0.000000000000E+000   0.000000000000E+000   0.000000000000E+000 
END PERIOD 

