# CHD: Time-Variant Specified-Head package file created on 7/2/2024 by ModelMuse version 5.2.0.18.
BEGIN OPTIONS
    AUXILIARY IFACE Chem
    BOUNDNAMES
    PRINT_INPUT
    SAVE_FLOWS
END OPTIONS

BEGIN DIMENSIONS
  MAXBOUND     2
END DIMENSIONS

BEGIN PERIOD      1
     1     1    10 -5.000000000000E+000      0  0.000000000000E+000  'Chd'  # Data Set 6: Layer Row Column Shead IFACE Chem boundname
     1    10     6 -4.000000000000E+000      0  0.000000000000E+000  'Object0'  # Data Set 6: Layer Row Column Shead IFACE Chem boundname
END PERIOD 

BEGIN PERIOD      2
     1    10     6 -4.000000000000E+000      0  0.000000000000E+000  'Object0'  # Data Set 6: Layer Row Column Shead IFACE Chem boundname
END PERIOD 

