# Name File for MT3DMS created on 2/4/2020 by ModelMuse
LIST 16 UztTest2.mls
FTL 10 UztTest2.ftl
DATA 17 UztTest2.cnf
UZT2 7 UztTest2.uzt
BTN 1 UztTest2.btn
DATA(BINARY) 201 UztTest2_a.ucn
DATA 601 UztTest2_a._mas
ADV 2 UztTest2.adv
DSP 3 UztTest2.dsp
SSM 4 UztTest2.ssm
GCG 9 UztTest2.gcg
