# MST: Mobile Storage and Transfer Package file created on 10/3/2022 by ModelMuse version 5.0.0.28.
BEGIN OPTIONS
    SAVE_FLOWS
END OPTIONS

BEGIN GRIDDATA
  POROSITY LAYERED IPRN    12
    CONSTANT   4.500000000000E-001  # POROSITY 1

    CONSTANT   4.500000000000E-001  # POROSITY 2

    CONSTANT   4.500000000000E-001  # POROSITY 3

    CONSTANT   4.500000000000E-001  # POROSITY 4

    CONSTANT   4.500000000000E-001  # POROSITY 5

    CONSTANT   4.500000000000E-001  # POROSITY 6

    CONSTANT   4.500000000000E-001  # POROSITY 7

    CONSTANT   4.500000000000E-001  # POROSITY 8

    CONSTANT   4.500000000000E-001  # POROSITY 9

    CONSTANT   4.500000000000E-001  # POROSITY 10

    CONSTANT   4.500000000000E-001  # POROSITY 11

    CONSTANT   4.500000000000E-001  # POROSITY 12

    CONSTANT   4.500000000000E-001  # POROSITY 13

    CONSTANT   4.500000000000E-001  # POROSITY 14

    CONSTANT   4.500000000000E-001  # POROSITY 15

    CONSTANT   4.500000000000E-001  # POROSITY 16

    CONSTANT   4.500000000000E-001  # POROSITY 17

    CONSTANT   4.500000000000E-001  # POROSITY 18

    CONSTANT   4.500000000000E-001  # POROSITY 19

    CONSTANT   4.500000000000E-001  # POROSITY 20

END GRIDDATA

