# UZF6: Unsaturated-Zone Flow Package for MODFLOW 6 file created on 10/3/2022 by ModelMuse version 5.0.0.28.
BEGIN OPTIONS
    PRINT_INPUT
    SAVE_FLOWS
  BUDGET FILEOUT UztTimeSeries.uzf_budget
  PACKAGE_CONVERGENCE FILEOUT UztTimeSeries.UzfConvergence.CSV
    BOUNDNAMES
    TS6 FILEIN UztTimeSeries.uzf.MyGroup.ts
  AUXILIARY Chem
END OPTIONS

BEGIN DIMENSIONS
  NUZFCELLS   760
  NTRAILWAVES    15
  NWAVESETS    40
END DIMENSIONS

BEGIN PACKAGEDATA
# <iuzno> <cellid(ncelldim)> <landflag> <ivertcon> <surfdep> <vks> <thtr> <thts> <thti> <eps> [<boundname>]
       1     1     1     2     1    39  1.000000000000E-001   5.000000000000E-001   1.000000000000E-001   4.500000000000E-001   1.050000000000E-001   4.000000000000E+000  UZF_Top_Left
       2     1     1     3     1    40  1.000000000000E-001   5.000000000000E-001   1.000000000000E-001   4.500000000000E-001   1.050000000000E-001   4.000000000000E+000  UZF_Top_Left
       3     1     1     4     1    41  1.000000000000E-001   5.000000000000E-001   1.000000000000E-001   4.500000000000E-001   1.050000000000E-001   4.000000000000E+000  UZF_Top_Left
       4     1     1     5     1    42  1.000000000000E-001   5.000000000000E-001   1.000000000000E-001   4.500000000000E-001   1.050000000000E-001   4.000000000000E+000  UZF_Top_Left
       5     1     1     6     1    43  1.000000000000E-001   5.000000000000E-001   1.000000000000E-001   4.500000000000E-001   1.050000000000E-001   4.000000000000E+000  UZF_Top_Left
       6     1     1     7     1    44  1.000000000000E-001   5.000000000000E-001   1.000000000000E-001   4.500000000000E-001   1.050000000000E-001   4.000000000000E+000  UZF_Top_Left
       7     1     1     8     1    45  1.000000000000E-001   5.000000000000E-001   1.000000000000E-001   4.500000000000E-001   1.050000000000E-001   4.000000000000E+000  UZF_Top_Left
       8     1     1     9     1    46  1.000000000000E-001   5.000000000000E-001   1.000000000000E-001   4.500000000000E-001   1.050000000000E-001   4.000000000000E+000  UZF_Top_Left
       9     1     1    10     1    47  1.000000000000E-001   5.000000000000E-001   1.000000000000E-001   4.500000000000E-001   1.050000000000E-001   4.000000000000E+000  UZF_Top_Left
      10     1     1    11     1    48  1.000000000000E-001   5.000000000000E-001   1.000000000000E-001   4.500000000000E-001   1.050000000000E-001   4.000000000000E+000  UZF_Top_Left
      11     1     1    12     1    49  1.000000000000E-001   5.000000000000E-001   1.000000000000E-001   4.500000000000E-001   1.050000000000E-001   4.000000000000E+000  UZF_Top_Left
      12     1     1    13     1    50  1.000000000000E-001   5.000000000000E-001   1.000000000000E-001   4.500000000000E-001   1.050000000000E-001   4.000000000000E+000  UZF_Top_Left
      13     1     1    14     1    51  1.000000000000E-001   5.000000000000E-001   1.000000000000E-001   4.500000000000E-001   1.050000000000E-001   4.000000000000E+000  UZF_Top_Left
      14     1     1    15     1    52  1.000000000000E-001   5.000000000000E-001   1.000000000000E-001   4.500000000000E-001   1.050000000000E-001   4.000000000000E+000  UZF_Top_Center
      15     1     1    16     1    53  1.000000000000E-001   5.000000000000E-001   1.000000000000E-001   4.500000000000E-001   1.050000000000E-001   4.000000000000E+000  UZF_Top_Center
      16     1     1    17     1    54  1.000000000000E-001   5.000000000000E-001   1.000000000000E-001   4.500000000000E-001   1.050000000000E-001   4.000000000000E+000  UZF_Top_Center
      17     1     1    18     1    55  1.000000000000E-001   5.000000000000E-001   1.000000000000E-001   4.500000000000E-001   1.050000000000E-001   4.000000000000E+000  UZF_Top_Center
      18     1     1    19     1    56  1.000000000000E-001   5.000000000000E-001   1.000000000000E-001   4.500000000000E-001   1.050000000000E-001   4.000000000000E+000  UZF_Top_Center
      19     1     1    20     1    57  1.000000000000E-001   5.000000000000E-001   1.000000000000E-001   4.500000000000E-001   1.050000000000E-001   4.000000000000E+000  UZF_Top_Center
      20     1     1    21     1    58  1.000000000000E-001   5.000000000000E-001   1.000000000000E-001   4.500000000000E-001   1.050000000000E-001   4.000000000000E+000  UZF_Top_Center
      21     1     1    22     1    59  1.000000000000E-001   5.000000000000E-001   1.000000000000E-001   4.500000000000E-001   1.050000000000E-001   4.000000000000E+000  UZF_Top_Center
      22     1     1    23     1    60  1.000000000000E-001   5.000000000000E-001   1.000000000000E-001   4.500000000000E-001   1.050000000000E-001   4.000000000000E+000  UZF_Top_Center
      23     1     1    24     1    61  1.000000000000E-001   5.000000000000E-001   1.000000000000E-001   4.500000000000E-001   1.050000000000E-001   4.000000000000E+000  UZF_Top_Center
      24     1     1    25     1    62  1.000000000000E-001   5.000000000000E-001   1.000000000000E-001   4.500000000000E-001   1.050000000000E-001   4.000000000000E+000  UZF_Top_Center
      25     1     1    26     1    63  1.000000000000E-001   5.000000000000E-001   1.000000000000E-001   4.500000000000E-001   1.050000000000E-001   4.000000000000E+000  Uzf_Top_Right
      26     1     1    27     1    64  1.000000000000E-001   5.000000000000E-001   1.000000000000E-001   4.500000000000E-001   1.050000000000E-001   4.000000000000E+000  Uzf_Top_Right
      27     1     1    28     1    65  1.000000000000E-001   5.000000000000E-001   1.000000000000E-001   4.500000000000E-001   1.050000000000E-001   4.000000000000E+000  Uzf_Top_Right
      28     1     1    29     1    66  1.000000000000E-001   5.000000000000E-001   1.000000000000E-001   4.500000000000E-001   1.050000000000E-001   4.000000000000E+000  Uzf_Top_Right
      29     1     1    30     1    67  1.000000000000E-001   5.000000000000E-001   1.000000000000E-001   4.500000000000E-001   1.050000000000E-001   4.000000000000E+000  Uzf_Top_Right
      30     1     1    31     1    68  1.000000000000E-001   5.000000000000E-001   1.000000000000E-001   4.500000000000E-001   1.050000000000E-001   4.000000000000E+000  Uzf_Top_Right
      31     1     1    32     1    69  1.000000000000E-001   5.000000000000E-001   1.000000000000E-001   4.500000000000E-001   1.050000000000E-001   4.000000000000E+000  Uzf_Top_Right
      32     1     1    33     1    70  1.000000000000E-001   5.000000000000E-001   1.000000000000E-001   4.500000000000E-001   1.050000000000E-001   4.000000000000E+000  Uzf_Top_Right
      33     1     1    34     1    71  1.000000000000E-001   5.000000000000E-001   1.000000000000E-001   4.500000000000E-001   1.050000000000E-001   4.000000000000E+000  Uzf_Top_Right
      34     1     1    35     1    72  1.000000000000E-001   5.000000000000E-001   1.000000000000E-001   4.500000000000E-001   1.050000000000E-001   4.000000000000E+000  Uzf_Top_Right
      35     1     1    36     1    73  1.000000000000E-001   5.000000000000E-001   1.000000000000E-001   4.500000000000E-001   1.050000000000E-001   4.000000000000E+000  Uzf_Top_Right
      36     1     1    37     1    74  1.000000000000E-001   5.000000000000E-001   1.000000000000E-001   4.500000000000E-001   1.050000000000E-001   4.000000000000E+000  Uzf_Top_Right
      37     1     1    38     1    75  1.000000000000E-001   5.000000000000E-001   1.000000000000E-001   4.500000000000E-001   1.050000000000E-001   4.000000000000E+000  Uzf_Top_Right
      38     1     1    39     1    76  1.000000000000E-001   5.000000000000E-001   1.000000000000E-001   4.500000000000E-001   1.050000000000E-001   4.000000000000E+000  Uzf_Top_Right
      39     2     1     2     0    77  1.000000000000E-001   5.000000000000E-001   1.000000000000E-001   4.500000000000E-001   1.050000000000E-001   4.000000000000E+000  UZF_Bottom
      40     2     1     3     0    78  1.000000000000E-001   5.000000000000E-001   1.000000000000E-001   4.500000000000E-001   1.050000000000E-001   4.000000000000E+000  UZF_Bottom
      41     2     1     4     0    79  1.000000000000E-001   5.000000000000E-001   1.000000000000E-001   4.500000000000E-001   1.050000000000E-001   4.000000000000E+000  UZF_Bottom
      42     2     1     5     0    80  1.000000000000E-001   5.000000000000E-001   1.000000000000E-001   4.500000000000E-001   1.050000000000E-001   4.000000000000E+000  UZF_Bottom
      43     2     1     6     0    81  1.000000000000E-001   5.000000000000E-001   1.000000000000E-001   4.500000000000E-001   1.050000000000E-001   4.000000000000E+000  UZF_Bottom
      44     2     1     7     0    82  1.000000000000E-001   5.000000000000E-001   1.000000000000E-001   4.500000000000E-001   1.050000000000E-001   4.000000000000E+000  UZF_Bottom
      45     2     1     8     0    83  1.000000000000E-001   5.000000000000E-001   1.000000000000E-001   4.500000000000E-001   1.050000000000E-001   4.000000000000E+000  UZF_Bottom
      46     2     1     9     0    84  1.000000000000E-001   5.000000000000E-001   1.000000000000E-001   4.500000000000E-001   1.050000000000E-001   4.000000000000E+000  UZF_Bottom
      47     2     1    10     0    85  1.000000000000E-001   5.000000000000E-001   1.000000000000E-001   4.500000000000E-001   1.050000000000E-001   4.000000000000E+000  UZF_Bottom
      48     2     1    11     0    86  1.000000000000E-001   5.000000000000E-001   1.000000000000E-001   4.500000000000E-001   1.050000000000E-001   4.000000000000E+000  UZF_Bottom
      49     2     1    12     0    87  1.000000000000E-001   5.000000000000E-001   1.000000000000E-001   4.500000000000E-001   1.050000000000E-001   4.000000000000E+000  UZF_Bottom
      50     2     1    13     0    88  1.000000000000E-001   5.000000000000E-001   1.000000000000E-001   4.500000000000E-001   1.050000000000E-001   4.000000000000E+000  UZF_Bottom
      51     2     1    14     0    89  1.000000000000E-001   5.000000000000E-001   1.000000000000E-001   4.500000000000E-001   1.050000000000E-001   4.000000000000E+000  UZF_Bottom
      52     2     1    15     0    90  1.000000000000E-001   5.000000000000E-001   1.000000000000E-001   4.500000000000E-001   1.050000000000E-001   4.000000000000E+000  UZF_Bottom
      53     2     1    16     0    91  1.000000000000E-001   5.000000000000E-001   1.000000000000E-001   4.500000000000E-001   1.050000000000E-001   4.000000000000E+000  UZF_Bottom
      54     2     1    17     0    92  1.000000000000E-001   5.000000000000E-001   1.000000000000E-001   4.500000000000E-001   1.050000000000E-001   4.000000000000E+000  UZF_Bottom
      55     2     1    18     0    93  1.000000000000E-001   5.000000000000E-001   1.000000000000E-001   4.500000000000E-001   1.050000000000E-001   4.000000000000E+000  UZF_Bottom
      56     2     1    19     0    94  1.000000000000E-001   5.000000000000E-001   1.000000000000E-001   4.500000000000E-001   1.050000000000E-001   4.000000000000E+000  UZF_Bottom
      57     2     1    20     0    95  1.000000000000E-001   5.000000000000E-001   1.000000000000E-001   4.500000000000E-001   1.050000000000E-001   4.000000000000E+000  UZF_Bottom
      58     2     1    21     0    96  1.000000000000E-001   5.000000000000E-001   1.000000000000E-001   4.500000000000E-001   1.050000000000E-001   4.000000000000E+000  UZF_Bottom
      59     2     1    22     0    97  1.000000000000E-001   5.000000000000E-001   1.000000000000E-001   4.500000000000E-001   1.050000000000E-001   4.000000000000E+000  UZF_Bottom
      60     2     1    23     0    98  1.000000000000E-001   5.000000000000E-001   1.000000000000E-001   4.500000000000E-001   1.050000000000E-001   4.000000000000E+000  UZF_Bottom
      61     2     1    24     0    99  1.000000000000E-001   5.000000000000E-001   1.000000000000E-001   4.500000000000E-001   1.050000000000E-001   4.000000000000E+000  UZF_Bottom
      62     2     1    25     0   100  1.000000000000E-001   5.000000000000E-001   1.000000000000E-001   4.500000000000E-001   1.050000000000E-001   4.000000000000E+000  UZF_Bottom
      63     2     1    26     0   101  1.000000000000E-001   5.000000000000E-001   1.000000000000E-001   4.500000000000E-001   1.050000000000E-001   4.000000000000E+000  UZF_Bottom
      64     2     1    27     0   102  1.000000000000E-001   5.000000000000E-001   1.000000000000E-001   4.500000000000E-001   1.050000000000E-001   4.000000000000E+000  UZF_Bottom
      65     2     1    28     0   103  1.000000000000E-001   5.000000000000E-001   1.000000000000E-001   4.500000000000E-001   1.050000000000E-001   4.000000000000E+000  UZF_Bottom
      66     2     1    29     0   104  1.000000000000E-001   5.000000000000E-001   1.000000000000E-001   4.500000000000E-001   1.050000000000E-001   4.000000000000E+000  UZF_Bottom
      67     2     1    30     0   105  1.000000000000E-001   5.000000000000E-001   1.000000000000E-001   4.500000000000E-001   1.050000000000E-001   4.000000000000E+000  UZF_Bottom
      68     2     1    31     0   106  1.000000000000E-001   5.000000000000E-001   1.000000000000E-001   4.500000000000E-001   1.050000000000E-001   4.000000000000E+000  UZF_Bottom
      69     2     1    32     0   107  1.000000000000E-001   5.000000000000E-001   1.000000000000E-001   4.500000000000E-001   1.050000000000E-001   4.000000000000E+000  UZF_Bottom
      70     2     1    33     0   108  1.000000000000E-001   5.000000000000E-001   1.000000000000E-001   4.500000000000E-001   1.050000000000E-001   4.000000000000E+000  UZF_Bottom
      71     2     1    34     0   109  1.000000000000E-001   5.000000000000E-001   1.000000000000E-001   4.500000000000E-001   1.050000000000E-001   4.000000000000E+000  UZF_Bottom
      72     2     1    35     0   110  1.000000000000E-001   5.000000000000E-001   1.000000000000E-001   4.500000000000E-001   1.050000000000E-001   4.000000000000E+000  UZF_Bottom
      73     2     1    36     0   111  1.000000000000E-001   5.000000000000E-001   1.000000000000E-001   4.500000000000E-001   1.050000000000E-001   4.000000000000E+000  UZF_Bottom
      74     2     1    37     0   112  1.000000000000E-001   5.000000000000E-001   1.000000000000E-001   4.500000000000E-001   1.050000000000E-001   4.000000000000E+000  UZF_Bottom
      75     2     1    38     0   113  1.000000000000E-001   5.000000000000E-001   1.000000000000E-001   4.500000000000E-001   1.050000000000E-001   4.000000000000E+000  UZF_Bottom
      76     2     1    39     0   114  1.000000000000E-001   5.000000000000E-001   1.000000000000E-001   4.500000000000E-001   1.050000000000E-001   4.000000000000E+000  UZF_Bottom
      77     3     1     2     0   115  1.000000000000E-001   5.000000000000E-001   1.000000000000E-001   4.500000000000E-001   1.050000000000E-001   4.000000000000E+000  UZF_Bottom
      78     3     1     3     0   116  1.000000000000E-001   5.000000000000E-001   1.000000000000E-001   4.500000000000E-001   1.050000000000E-001   4.000000000000E+000  UZF_Bottom
      79     3     1     4     0   117  1.000000000000E-001   5.000000000000E-001   1.000000000000E-001   4.500000000000E-001   1.050000000000E-001   4.000000000000E+000  UZF_Bottom
      80     3     1     5     0   118  1.000000000000E-001   5.000000000000E-001   1.000000000000E-001   4.500000000000E-001   1.050000000000E-001   4.000000000000E+000  UZF_Bottom
      81     3     1     6     0   119  1.000000000000E-001   5.000000000000E-001   1.000000000000E-001   4.500000000000E-001   1.050000000000E-001   4.000000000000E+000  UZF_Bottom
      82     3     1     7     0   120  1.000000000000E-001   5.000000000000E-001   1.000000000000E-001   4.500000000000E-001   1.050000000000E-001   4.000000000000E+000  UZF_Bottom
      83     3     1     8     0   121  1.000000000000E-001   5.000000000000E-001   1.000000000000E-001   4.500000000000E-001   1.050000000000E-001   4.000000000000E+000  UZF_Bottom
      84     3     1     9     0   122  1.000000000000E-001   5.000000000000E-001   1.000000000000E-001   4.500000000000E-001   1.050000000000E-001   4.000000000000E+000  UZF_Bottom
      85     3     1    10     0   123  1.000000000000E-001   5.000000000000E-001   1.000000000000E-001   4.500000000000E-001   1.050000000000E-001   4.000000000000E+000  UZF_Bottom
      86     3     1    11     0   124  1.000000000000E-001   5.000000000000E-001   1.000000000000E-001   4.500000000000E-001   1.050000000000E-001   4.000000000000E+000  UZF_Bottom
      87     3     1    12     0   125  1.000000000000E-001   5.000000000000E-001   1.000000000000E-001   4.500000000000E-001   1.050000000000E-001   4.000000000000E+000  UZF_Bottom
      88     3     1    13     0   126  1.000000000000E-001   5.000000000000E-001   1.000000000000E-001   4.500000000000E-001   1.050000000000E-001   4.000000000000E+000  UZF_Bottom
      89     3     1    14     0   127  1.000000000000E-001   5.000000000000E-001   1.000000000000E-001   4.500000000000E-001   1.050000000000E-001   4.000000000000E+000  UZF_Bottom
      90     3     1    15     0   128  1.000000000000E-001   5.000000000000E-001   1.000000000000E-001   4.500000000000E-001   1.050000000000E-001   4.000000000000E+000  UZF_Bottom
      91     3     1    16     0   129  1.000000000000E-001   5.000000000000E-001   1.000000000000E-001   4.500000000000E-001   1.050000000000E-001   4.000000000000E+000  UZF_Bottom
      92     3     1    17     0   130  1.000000000000E-001   5.000000000000E-001   1.000000000000E-001   4.500000000000E-001   1.050000000000E-001   4.000000000000E+000  UZF_Bottom
      93     3     1    18     0   131  1.000000000000E-001   5.000000000000E-001   1.000000000000E-001   4.500000000000E-001   1.050000000000E-001   4.000000000000E+000  UZF_Bottom
      94     3     1    19     0   132  1.000000000000E-001   5.000000000000E-001   1.000000000000E-001   4.500000000000E-001   1.050000000000E-001   4.000000000000E+000  UZF_Bottom
      95     3     1    20     0   133  1.000000000000E-001   5.000000000000E-001   1.000000000000E-001   4.500000000000E-001   1.050000000000E-001   4.000000000000E+000  UZF_Bottom
      96     3     1    21     0   134  1.000000000000E-001   5.000000000000E-001   1.000000000000E-001   4.500000000000E-001   1.050000000000E-001   4.000000000000E+000  UZF_Bottom
      97     3     1    22     0   135  1.000000000000E-001   5.000000000000E-001   1.000000000000E-001   4.500000000000E-001   1.050000000000E-001   4.000000000000E+000  UZF_Bottom
      98     3     1    23     0   136  1.000000000000E-001   5.000000000000E-001   1.000000000000E-001   4.500000000000E-001   1.050000000000E-001   4.000000000000E+000  UZF_Bottom
      99     3     1    24     0   137  1.000000000000E-001   5.000000000000E-001   1.000000000000E-001   4.500000000000E-001   1.050000000000E-001   4.000000000000E+000  UZF_Bottom
     100     3     1    25     0   138  1.000000000000E-001   5.000000000000E-001   1.000000000000E-001   4.500000000000E-001   1.050000000000E-001   4.000000000000E+000  UZF_Bottom
     101     3     1    26     0   139  1.000000000000E-001   5.000000000000E-001   1.000000000000E-001   4.500000000000E-001   1.050000000000E-001   4.000000000000E+000  UZF_Bottom
     102     3     1    27     0   140  1.000000000000E-001   5.000000000000E-001   1.000000000000E-001   4.500000000000E-001   1.050000000000E-001   4.000000000000E+000  UZF_Bottom
     103     3     1    28     0   141  1.000000000000E-001   5.000000000000E-001   1.000000000000E-001   4.500000000000E-001   1.050000000000E-001   4.000000000000E+000  UZF_Bottom
     104     3     1    29     0   142  1.000000000000E-001   5.000000000000E-001   1.000000000000E-001   4.500000000000E-001   1.050000000000E-001   4.000000000000E+000  UZF_Bottom
     105     3     1    30     0   143  1.000000000000E-001   5.000000000000E-001   1.000000000000E-001   4.500000000000E-001   1.050000000000E-001   4.000000000000E+000  UZF_Bottom
     106     3     1    31     0   144  1.000000000000E-001   5.000000000000E-001   1.000000000000E-001   4.500000000000E-001   1.050000000000E-001   4.000000000000E+000  UZF_Bottom
     107     3     1    32     0   145  1.000000000000E-001   5.000000000000E-001   1.000000000000E-001   4.500000000000E-001   1.050000000000E-001   4.000000000000E+000  UZF_Bottom
     108     3     1    33     0   146  1.000000000000E-001   5.000000000000E-001   1.000000000000E-001   4.500000000000E-001   1.050000000000E-001   4.000000000000E+000  UZF_Bottom
     109     3     1    34     0   147  1.000000000000E-001   5.000000000000E-001   1.000000000000E-001   4.500000000000E-001   1.050000000000E-001   4.000000000000E+000  UZF_Bottom
     110     3     1    35     0   148  1.000000000000E-001   5.000000000000E-001   1.000000000000E-001   4.500000000000E-001   1.050000000000E-001   4.000000000000E+000  UZF_Bottom
     111     3     1    36     0   149  1.000000000000E-001   5.000000000000E-001   1.000000000000E-001   4.500000000000E-001   1.050000000000E-001   4.000000000000E+000  UZF_Bottom
     112     3     1    37     0   150  1.000000000000E-001   5.000000000000E-001   1.000000000000E-001   4.500000000000E-001   1.050000000000E-001   4.000000000000E+000  UZF_Bottom
     113     3     1    38     0   151  1.000000000000E-001   5.000000000000E-001   1.000000000000E-001   4.500000000000E-001   1.050000000000E-001   4.000000000000E+000  UZF_Bottom
     114     3     1    39     0   152  1.000000000000E-001   5.000000000000E-001   1.000000000000E-001   4.500000000000E-001   1.050000000000E-001   4.000000000000E+000  UZF_Bottom
     115     4     1     2     0   153  1.000000000000E-001   5.000000000000E-001   1.000000000000E-001   4.500000000000E-001   1.050000000000E-001   4.000000000000E+000  UZF_Bottom
     116     4     1     3     0   154  1.000000000000E-001   5.000000000000E-001   1.000000000000E-001   4.500000000000E-001   1.050000000000E-001   4.000000000000E+000  UZF_Bottom
     117     4     1     4     0   155  1.000000000000E-001   5.000000000000E-001   1.000000000000E-001   4.500000000000E-001   1.050000000000E-001   4.000000000000E+000  UZF_Bottom
     118     4     1     5     0   156  1.000000000000E-001   5.000000000000E-001   1.000000000000E-001   4.500000000000E-001   1.050000000000E-001   4.000000000000E+000  UZF_Bottom
     119     4     1     6     0   157  1.000000000000E-001   5.000000000000E-001   1.000000000000E-001   4.500000000000E-001   1.050000000000E-001   4.000000000000E+000  UZF_Bottom
     120     4     1     7     0   158  1.000000000000E-001   5.000000000000E-001   1.000000000000E-001   4.500000000000E-001   1.050000000000E-001   4.000000000000E+000  UZF_Bottom
     121     4     1     8     0   159  1.000000000000E-001   5.000000000000E-001   1.000000000000E-001   4.500000000000E-001   1.050000000000E-001   4.000000000000E+000  UZF_Bottom
     122     4     1     9     0   160  1.000000000000E-001   5.000000000000E-001   1.000000000000E-001   4.500000000000E-001   1.050000000000E-001   4.000000000000E+000  UZF_Bottom
     123     4     1    10     0   161  1.000000000000E-001   5.000000000000E-001   1.000000000000E-001   4.500000000000E-001   1.050000000000E-001   4.000000000000E+000  UZF_Bottom
     124     4     1    11     0   162  1.000000000000E-001   5.000000000000E-001   1.000000000000E-001   4.500000000000E-001   1.050000000000E-001   4.000000000000E+000  UZF_Bottom
     125     4     1    12     0   163  1.000000000000E-001   5.000000000000E-001   1.000000000000E-001   4.500000000000E-001   1.050000000000E-001   4.000000000000E+000  UZF_Bottom
     126     4     1    13     0   164  1.000000000000E-001   5.000000000000E-001   1.000000000000E-001   4.500000000000E-001   1.050000000000E-001   4.000000000000E+000  UZF_Bottom
     127     4     1    14     0   165  1.000000000000E-001   5.000000000000E-001   1.000000000000E-001   4.500000000000E-001   1.050000000000E-001   4.000000000000E+000  UZF_Bottom
     128     4     1    15     0   166  1.000000000000E-001   5.000000000000E-001   1.000000000000E-001   4.500000000000E-001   1.050000000000E-001   4.000000000000E+000  UZF_Bottom
     129     4     1    16     0   167  1.000000000000E-001   5.000000000000E-001   1.000000000000E-001   4.500000000000E-001   1.050000000000E-001   4.000000000000E+000  UZF_Bottom
     130     4     1    17     0   168  1.000000000000E-001   5.000000000000E-001   1.000000000000E-001   4.500000000000E-001   1.050000000000E-001   4.000000000000E+000  UZF_Bottom
     131     4     1    18     0   169  1.000000000000E-001   5.000000000000E-001   1.000000000000E-001   4.500000000000E-001   1.050000000000E-001   4.000000000000E+000  UZF_Bottom
     132     4     1    19     0   170  1.000000000000E-001   5.000000000000E-001   1.000000000000E-001   4.500000000000E-001   1.050000000000E-001   4.000000000000E+000  UZF_Bottom
     133     4     1    20     0   171  1.000000000000E-001   5.000000000000E-001   1.000000000000E-001   4.500000000000E-001   1.050000000000E-001   4.000000000000E+000  UZF_Bottom
     134     4     1    21     0   172  1.000000000000E-001   5.000000000000E-001   1.000000000000E-001   4.500000000000E-001   1.050000000000E-001   4.000000000000E+000  UZF_Bottom
     135     4     1    22     0   173  1.000000000000E-001   5.000000000000E-001   1.000000000000E-001   4.500000000000E-001   1.050000000000E-001   4.000000000000E+000  UZF_Bottom
     136     4     1    23     0   174  1.000000000000E-001   5.000000000000E-001   1.000000000000E-001   4.500000000000E-001   1.050000000000E-001   4.000000000000E+000  UZF_Bottom
     137     4     1    24     0   175  1.000000000000E-001   5.000000000000E-001   1.000000000000E-001   4.500000000000E-001   1.050000000000E-001   4.000000000000E+000  UZF_Bottom
     138     4     1    25     0   176  1.000000000000E-001   5.000000000000E-001   1.000000000000E-001   4.500000000000E-001   1.050000000000E-001   4.000000000000E+000  UZF_Bottom
     139     4     1    26     0   177  1.000000000000E-001   5.000000000000E-001   1.000000000000E-001   4.500000000000E-001   1.050000000000E-001   4.000000000000E+000  UZF_Bottom
     140     4     1    27     0   178  1.000000000000E-001   5.000000000000E-001   1.000000000000E-001   4.500000000000E-001   1.050000000000E-001   4.000000000000E+000  UZF_Bottom
     141     4     1    28     0   179  1.000000000000E-001   5.000000000000E-001   1.000000000000E-001   4.500000000000E-001   1.050000000000E-001   4.000000000000E+000  UZF_Bottom
     142     4     1    29     0   180  1.000000000000E-001   5.000000000000E-001   1.000000000000E-001   4.500000000000E-001   1.050000000000E-001   4.000000000000E+000  UZF_Bottom
     143     4     1    30     0   181  1.000000000000E-001   5.000000000000E-001   1.000000000000E-001   4.500000000000E-001   1.050000000000E-001   4.000000000000E+000  UZF_Bottom
     144     4     1    31     0   182  1.000000000000E-001   5.000000000000E-001   1.000000000000E-001   4.500000000000E-001   1.050000000000E-001   4.000000000000E+000  UZF_Bottom
     145     4     1    32     0   183  1.000000000000E-001   5.000000000000E-001   1.000000000000E-001   4.500000000000E-001   1.050000000000E-001   4.000000000000E+000  UZF_Bottom
     146     4     1    33     0   184  1.000000000000E-001   5.000000000000E-001   1.000000000000E-001   4.500000000000E-001   1.050000000000E-001   4.000000000000E+000  UZF_Bottom
     147     4     1    34     0   185  1.000000000000E-001   5.000000000000E-001   1.000000000000E-001   4.500000000000E-001   1.050000000000E-001   4.000000000000E+000  UZF_Bottom
     148     4     1    35     0   186  1.000000000000E-001   5.000000000000E-001   1.000000000000E-001   4.500000000000E-001   1.050000000000E-001   4.000000000000E+000  UZF_Bottom
     149     4     1    36     0   187  1.000000000000E-001   5.000000000000E-001   1.000000000000E-001   4.500000000000E-001   1.050000000000E-001   4.000000000000E+000  UZF_Bottom
     150     4     1    37     0   188  1.000000000000E-001   5.000000000000E-001   1.000000000000E-001   4.500000000000E-001   1.050000000000E-001   4.000000000000E+000  UZF_Bottom
     151     4     1    38     0   189  1.000000000000E-001   5.000000000000E-001   1.000000000000E-001   4.500000000000E-001   1.050000000000E-001   4.000000000000E+000  UZF_Bottom
     152     4     1    39     0   190  1.000000000000E-001   5.000000000000E-001   1.000000000000E-001   4.500000000000E-001   1.050000000000E-001   4.000000000000E+000  UZF_Bottom
     153     5     1     2     0   191  1.000000000000E-001   5.000000000000E-001   1.000000000000E-001   4.500000000000E-001   1.050000000000E-001   4.000000000000E+000  UZF_Bottom
     154     5     1     3     0   192  1.000000000000E-001   5.000000000000E-001   1.000000000000E-001   4.500000000000E-001   1.050000000000E-001   4.000000000000E+000  UZF_Bottom
     155     5     1     4     0   193  1.000000000000E-001   5.000000000000E-001   1.000000000000E-001   4.500000000000E-001   1.050000000000E-001   4.000000000000E+000  UZF_Bottom
     156     5     1     5     0   194  1.000000000000E-001   5.000000000000E-001   1.000000000000E-001   4.500000000000E-001   1.050000000000E-001   4.000000000000E+000  UZF_Bottom
     157     5     1     6     0   195  1.000000000000E-001   5.000000000000E-001   1.000000000000E-001   4.500000000000E-001   1.050000000000E-001   4.000000000000E+000  UZF_Bottom
     158     5     1     7     0   196  1.000000000000E-001   5.000000000000E-001   1.000000000000E-001   4.500000000000E-001   1.050000000000E-001   4.000000000000E+000  UZF_Bottom
     159     5     1     8     0   197  1.000000000000E-001   5.000000000000E-001   1.000000000000E-001   4.500000000000E-001   1.050000000000E-001   4.000000000000E+000  UZF_Bottom
     160     5     1     9     0   198  1.000000000000E-001   5.000000000000E-001   1.000000000000E-001   4.500000000000E-001   1.050000000000E-001   4.000000000000E+000  UZF_Bottom
     161     5     1    10     0   199  1.000000000000E-001   5.000000000000E-001   1.000000000000E-001   4.500000000000E-001   1.050000000000E-001   4.000000000000E+000  UZF_Bottom