# ADV: GWT Advection Package file created on 7/2/2024 by ModelMuse version 5.2.0.18.
BEGIN OPTIONS
  SCHEME upstream
END OPTIONS

