# IMS: Iterative Model Solution file created on 10/3/2022 by ModelMuse version 5.0.0.28.
BEGIN OPTIONS
  PRINT_OPTION SUMMARY
  COMPLEXITY COMPLEX
  CSV_OUTER_OUTPUT FILEOUT UztTimeSeries.Chem.OuterSolution.CSV
  CSV_INNER_OUTPUT FILEOUT UztTimeSeries.Chem.InnerSolution.CSV
  NO_PTC ALL
  ATS_OUTER_MAXIMUM_FRACTION  3.333333333333E-001 
END OPTIONS

BEGIN NONLINEAR
  OUTER_DVCLOSE   1.000000000000E-004 
  OUTER_MAXIMUM   2000
  UNDER_RELAXATION DBD
  UNDER_RELAXATION_THETA   7.000000000000E-001 
  UNDER_RELAXATION_KAPPA  8.000000000000E-002 
  UNDER_RELAXATION_GAMMA  5.000000000000E-002 
  UNDER_RELAXATION_MOMENTUM  0.000000000000E+000 
  BACKTRACKING_NUMBER    20
  BACKTRACKING_TOLERANCE  2.000000000000E+000 
  BACKTRACKING_REDUCTION_FACTOR  2.000000000000E-001 
  BACKTRACKING_RESIDUAL_LIMIT  5.000000000000E-004 
END NONLINEAR

BEGIN LINEAR
  INNER_MAXIMUM   100
  INNER_DVCLOSE  1.000000000000E-005 
  INNER_RCLOSE  1.000000000000E-004  RELATIVE_RCLOSE
  LINEAR_ACCELERATION BICGSTAB
  RELAXATION_FACTOR  0.000000000000E+000 
  PRECONDITIONER_LEVELS     8
  PRECONDITIONER_DROP_TOLERANCE  1.000000000000E-003 
  NUMBER_ORTHOGONALIZATIONS     2
END LINEAR

