BEGIN OPTIONS
  PRINT_INPUT
END OPTIONS

BEGIN TIMING
  TDIS6 'UztTimeSeriesTest.tdis'
END TIMING

BEGIN MODELS
  GWF6 'UztTimeSeriesTest.nam' 'MODFLOW'
  GWT6 'UztTimeSeriesTest.Chem.Gwt_nam' 'Chem'
END MODELS

BEGIN EXCHANGES
  GWF6-GWT6 UztTimeSeriesTest.Chem.gwfgwt MODFLOW Chem
END EXCHANGES

BEGIN SOLUTIONGROUP     1
  MXITER     1
  IMS6 'UztTimeSeriesTest.ims' 'MODFLOW' 
  IMS6 'UztTimeSeriesTest.Chem.ims' 'Chem' 
END SOLUTIONGROUP

