# UZF6: Unsaturated-Zone Flow Package for MODFLOW 6 file created on 7/2/2024 by ModelMuse version 5.2.0.18.
BEGIN OPTIONS
    FLOW_PACKAGE_NAME UZF-1
    FLOW_PACKAGE_AUXILIARY_NAME  Chem
    BOUNDNAMES
    TS6 FILEIN UztTimeSeriesTest.Chem.uzt.UzfTimeSeries.ts
    PRINT_INPUT
    SAVE_FLOWS
    CONCENTRATION FILEOUT UztTimeSeriesTest.Chem.uzt_conc
    BUDGET FILEOUT UztTimeSeriesTest.Chem.uzt_budget
END OPTIONS

BEGIN PACKAGEDATA
# <uzfno> <strt> [<aux(naux)>] [<boundname>
       1  0.000000000000E+000  Uzf
       2  0.000000000000E+000  Uzf
       3  0.000000000000E+000  Uzf
       4  0.000000000000E+000  Uzf
END PACKAGEDATA

BEGIN PERIOD      1
# <uzfno> <uztsetting>
     1 STATUS ACTIVE
     1 INFILTRATION  0.000000000000E+000 

     2 STATUS ACTIVE
     2 INFILTRATION  0.000000000000E+000 

     3 STATUS ACTIVE
     3 INFILTRATION  0.000000000000E+000 

     4 STATUS ACTIVE
     4 INFILTRATION  0.000000000000E+000 

END PERIOD 

BEGIN PERIOD      2
# <uzfno> <uztsetting>
     1 STATUS ACTIVE
     1 INFILTRATION  0.000000000000E+000 

     2 STATUS ACTIVE
     2 INFILTRATION  0.000000000000E+000 

     3 STATUS ACTIVE
     3 INFILTRATION  0.000000000000E+000 

     4 STATUS ACTIVE
     4 INFILTRATION  0.000000000000E+000 

END PERIOD 

