# MST: Mobile Storage and Transfer Package file created on 7/2/2024 by ModelMuse version 5.2.0.18.
BEGIN OPTIONS
    SAVE_FLOWS
END OPTIONS

BEGIN GRIDDATA
  POROSITY LAYERED IPRN    12
    CONSTANT   2.500000000000E-001  # POROSITY 1

    CONSTANT   2.500000000000E-001  # POROSITY 2

    CONSTANT   2.500000000000E-001  # POROSITY 3

END GRIDDATA

