# TDIS file created on 1/20/2023 by ModelMuse version 5.1.1.8.

BEGIN OPTIONS
  TIME_UNITS days
END OPTIONS

BEGIN DIMENSIONS
  NPER     1
END DIMENSIONS

BEGIN PERIODDATA
    6.000000000000E+001    120  1.000000000000E+000  # perlen nstp tsmult, Stress period      1 Time =  0.000000000000E+000  -  6.000000000000E+001 
END PERIODDATA
