# Transport name file for Chem file created on 7/2/2024 by ModelMuse version 5.2.0.18.
BEGIN OPTIONS
  LIST UztTimeSeriesTest.Chem.lst
    PRINT_INPUT
    SAVE_FLOWS
END OPTIONS

BEGIN PACKAGES
  DIS6 UztTimeSeriesTest.Chem.dis
  OC6 UztTimeSeriesTest.Chem.oc
  UZT6 UztTimeSeriesTest.Chem.uzt
  ADV6 UztTimeSeriesTest.Chem.adv
  DSP6 UztTimeSeriesTest.Chem.dsp
  SSM6 UztTimeSeriesTest.Chem.ssm
  IC6 UztTimeSeriesTest.Chem.ic
  MST6 UztTimeSeriesTest.Chem.mst
END PACKAGES
