# UZT: Unsaturated-Zone Transport package (MT3D-USGS) file created on 2/4/2020 by ModelMuse version 4.1.0.25.
     0     0 # Record 2: ICBCUZ, IET
       103         1                             5 # Record 3: IUZFBND
     0     1     0
         1 # record 6: INCUZINF. Stress period      1
         0         0                            12 # record 7: CUZINF; Species 1
         1 # record 6: INCUZINF. Stress period      2
       103        1.                            12 # record 7: CUZINF; Species 1
  0.000000000000E+000   1.000000000000E+002   0.000000000000E+000 
         1 # record 6: INCUZINF. Stress period      3
         0         0                            12 # record 7: CUZINF; Species 1
         1 # record 6: INCUZINF. Stress period      4
         0         0                            12 # record 7: CUZINF; Species 1
         1 # record 6: INCUZINF. Stress period      5
         0         0                            12 # record 7: CUZINF; Species 1
         1 # record 6: INCUZINF. Stress period      6
         0         0                            12 # record 7: CUZINF; Species 1
         1 # record 6: INCUZINF. Stress period      7
         0         0                            12 # record 7: CUZINF; Species 1
         1 # record 6: INCUZINF. Stress period      8
         0         0                            12 # record 7: CUZINF; Species 1
         1 # record 6: INCUZINF. Stress period      9
         0         0                            12 # record 7: CUZINF; Species 1
         1 # record 6: INCUZINF. Stress period     10
         0         0                            12 # record 7: CUZINF; Species 1
         1 # record 6: INCUZINF. Stress period     11
         0         0                            12 # record 7: CUZINF; Species 1
         1 # record 6: INCUZINF. Stress period     12
         0         0                            12 # record 7: CUZINF; Species 1
         1 # record 6: INCUZINF. Stress period     13
         0         0                            12 # record 7: CUZINF; Species 1
         1 # record 6: INCUZINF. Stress period     14
         0         0                            12 # record 7: CUZINF; Species 1
         1 # record 6: INCUZINF. Stress period     15
         0         0                            12 # record 7: CUZINF; Species 1
         1 # record 6: INCUZINF. Stress period     16
         0         0                            12 # record 7: CUZINF; Species 1
         1 # record 6: INCUZINF. Stress period     17
         0         0                            12 # record 7: CUZINF; Species 1
         1 # record 6: INCUZINF. Stress period     18
         0         0                            12 # record 7: CUZINF; Species 1
         1 # record 6: INCUZINF. Stress period     19
         0         0                            12 # record 7: CUZINF; Species 1
         1 # record 6: INCUZINF. Stress period     20
         0         0                            12 # record 7: CUZINF; Species 1
         1 # record 6: INCUZINF. Stress period     21
         0         0                            12 # record 7: CUZINF; Species 1
         1 # record 6: INCUZINF. Stress period     22
         0         0                            12 # record 7: CUZINF; Species 1
         1 # record 6: INCUZINF. Stress period     23
         0         0                            12 # record 7: CUZINF; Species 1
         1 # record 6: INCUZINF. Stress period     24
         0         0                            12 # record 7: CUZINF; Species 1
         1 # record 6: INCUZINF. Stress period     25
         0         0                            12 # record 7: CUZINF; Species 1
         1 # record 6: INCUZINF. Stress period     26
         0         0                            12 # record 7: CUZINF; Species 1
         1 # record 6: INCUZINF. Stress period     27
         0         0                            12 # record 7: CUZINF; Species 1
         1 # record 6: INCUZINF. Stress period     28
         0         0                            12 # record 7: CUZINF; Species 1
         1 # record 6: INCUZINF. Stress period     29
         0         0                            12 # record 7: CUZINF; Species 1
         1 # record 6: INCUZINF. Stress period     30
         0         0                            12 # record 7: CUZINF; Species 1
         1 # record 6: INCUZINF. Stress period     31
         0         0                            12 # record 7: CUZINF; Species 1
         1 # record 6: INCUZINF. Stress period     32
         0         0                            12 # record 7: CUZINF; Species 1
         1 # record 6: INCUZINF. Stress period     33
         0         0                            12 # record 7: CUZINF; Species 1
         1 # record 6: INCUZINF. Stress period     34
         0         0                            12 # record 7: CUZINF; Species 1
         1 # record 6: INCUZINF. Stress period     35
         0         0                            12 # record 7: CUZINF; Species 1
         1 # record 6: INCUZINF. Stress period     36
         0         0                            12 # record 7: CUZINF; Species 1
         1 # record 6: INCUZINF. Stress period     37
         0         0                            12 # record 7: CUZINF; Species 1
         1 # record 6: INCUZINF. Stress period     38
         0         0                            12 # record 7: CUZINF; Species 1
         1 # record 6: INCUZINF. Stress period     39
         0         0                            12 # record 7: CUZINF; Species 1
         1 # record 6: INCUZINF. Stress period     40
         0         0                            12 # record 7: CUZINF; Species 1
         1 # record 6: INCUZINF. Stress period     41
         0         0                            12 # record 7: CUZINF; Species 1
         1 # record 6: INCUZINF. Stress period     42
         0         0                            12 # record 7: CUZINF; Species 1
