# Name File for MODFLOW created on 2/4/2020 by ModelMuse Version 4.1.0.25
LIST             11 ..\..\output\output.UztTest2\UztTest2.lst REPLACE
DATA(BINARY)      9 ..\..\output\output.UztTest2\UztTest2.cbc REPLACE
DIS              12 ..\..\model\model.UztTest2\UztTest2.dis OLD
BAS6             13 ..\..\model\model.UztTest2\UztTest2.bas OLD
OC               39 ..\..\model\model.UztTest2\UztTest2.oc OLD
DATA             37 ..\..\output\output.UztTest2\UztTest2.fhd REPLACE
DATA             38 ..\..\output\output.UztTest2\UztTest2.fdn REPLACE
NWT             133 ..\..\model\model.UztTest2\UztTest2.nwt OLD
UPW             134 ..\..\model\model.UztTest2\UztTest2.upw OLD
LMT6            135 ..\..\model\model.UztTest2\UztTest2.lmt OLD
CHD              17 ..\..\model\model.UztTest2\UztTest2.chd OLD
UZF              31 ..\..\model\model.UztTest2\UztTest2.uzf OLD
DATA          20206 ..\..\output\output.UztTest2\UztTest21.uzfg REPLACE
