# Name File for MODFLOW created on 2/1/2017 by ModelMuse Version 3.8.1.27
LIST             11 ..\..\output\output.VertexInterpolateTest\VertexInterpolateTest.lst REPLACE
DATA(BINARY)      9 ..\..\output\output.VertexInterpolateTest\VertexInterpolateTest.cbc REPLACE
DIS              12 ..\..\model\model.VertexInterpolateTest\VertexInterpolateTest.dis OLD
BAS6             13 ..\..\model\model.VertexInterpolateTest\VertexInterpolateTest.bas OLD
OC               39 ..\..\model\model.VertexInterpolateTest\VertexInterpolateTest.oc OLD
DATA             37 ..\..\output\output.VertexInterpolateTest\VertexInterpolateTest.fhd REPLACE
DATA             38 ..\..\output\output.VertexInterpolateTest\VertexInterpolateTest.fdn REPLACE
PCG              18 ..\..\model\model.VertexInterpolateTest\VertexInterpolateTest.pcg OLD
LPF              14 ..\..\model\model.VertexInterpolateTest\VertexInterpolateTest.lpf OLD
