# Name File for MODFLOW created on 12/14/2015 by ModelMuse
LIST             11 VertexInterpolateTest.lst REPLACE
DATA(BINARY)      9 VertexInterpolateTest.cbc REPLACE
DIS              12 VertexInterpolateTest.dis OLD
BAS6             13 VertexInterpolateTest.bas OLD
OC               39 VertexInterpolateTest.oc OLD
DATA             37 VertexInterpolateTest.fhd REPLACE
DATA             38 VertexInterpolateTest.fdn REPLACE
PCG              18 VertexInterpolateTest.pcg OLD
LPF              14 VertexInterpolateTest.lpf OLD
