# NPF: Node Property Flow package file created on 11/17/2023 by ModelMuse version 5.1.1.45.
BEGIN OPTIONS
    SAVE_FLOWS
  SAVE_SPECIFIC_DISCHARGE
  SAVE_SATURATION
END OPTIONS


BEGIN GRIDDATA
  ICELLTYPE LAYERED IPRN     5
    CONSTANT      0 # ICELLTYPE 1
  K LAYERED IPRN    12
    CONSTANT   8.640000000000E+002  # K 1

  K33 LAYERED IPRN    12
    CONSTANT   8.640000000000E+001  # K33 1

  K22 LAYERED IPRN    12
    CONSTANT   8.640000000000E+002  # K22 1

  angle1 LAYERED IPRN    12
    CONSTANT   0.000000000000E+000  # angle1 1

  angle2 LAYERED IPRN    12
    CONSTANT   0.000000000000E+000  # angle2 1

  angle3 LAYERED IPRN    12
    CONSTANT   0.000000000000E+000  # angle3 1

END GRIDDATA

