BEGIN OPTIONS
  PRINT_INPUT
END OPTIONS

BEGIN TIMING
  TDIS6 'Viscosity.tdis'
END TIMING

BEGIN MODELS
  GWF6 'Viscosity.nam' 'MODFLOW'
  GWT6 'Viscosity.Temperature.Gwt_nam' 'Temperature'
END MODELS

BEGIN EXCHANGES
  GWF6-GWT6 Viscosity.Temperature.gwfgwt MODFLOW Temperature
END EXCHANGES

BEGIN SOLUTIONGROUP     1
  MXITER     1
  IMS6 'Viscosity.ims' 'MODFLOW' 
  IMS6 'Viscosity.Temperature.ims' 'Temperature' 
END SOLUTIONGROUP

