# MST: Mobile Storage and Transfer Package file created on 11/17/2023 by ModelMuse version 5.1.1.45.
BEGIN OPTIONS
    SAVE_FLOWS
  SORPTION LINEAR
END OPTIONS

BEGIN GRIDDATA
  POROSITY LAYERED IPRN    12
    CONSTANT   2.600000000000E-001  # POROSITY 1

  BULK_DENSITY LAYERED IPRN    12
    CONSTANT   1.961000000000E+003  # BULK_DENSITY 1

  DISTCOEF LAYERED IPRN    12
    CONSTANT   2.105263160000E-004  # DISTCOEF 1

END GRIDDATA

