# STO: Storage package file created on 11/17/2023 by ModelMuse version 5.1.1.45.
BEGIN OPTIONS
    SAVE_FLOWS
END OPTIONS

BEGIN GRIDDATA
  ICONVERT LAYERED IPRN     5
    CONSTANT      0 # ICONVERT 1
  SS LAYERED IPRN    12
    CONSTANT   1.000000000000E-005  # SS 1

  SY LAYERED IPRN    12
    CONSTANT   2.000000000000E-001  # SY 1

END GRIDDATA

BEGIN PERIOD      1
  TRANSIENT
END PERIOD 

