# CHD: Time-Variant Specified-Head package file created on 11/17/2023 by ModelMuse version 5.1.1.45.
BEGIN OPTIONS
    AUXILIARY IFACE Temperature
    BOUNDNAMES
    PRINT_INPUT
    SAVE_FLOWS
END OPTIONS

BEGIN DIMENSIONS
  MAXBOUND    10
END DIMENSIONS

BEGIN PERIOD      1
     1     1     1  2.000000000000E+000      0  4.000000000000E+001  'Object1'  # Data Set 6: Layer Row Column Shead IFACE Temperature boundname
     1     2     1  2.000000000000E+000      0  4.000000000000E+001  'Object1'  # Data Set 6: Layer Row Column Shead IFACE Temperature boundname
     1     3     1  2.000000000000E+000      0  4.000000000000E+001  'Object1'  # Data Set 6: Layer Row Column Shead IFACE Temperature boundname
     1     4     1  2.000000000000E+000      0  4.000000000000E+001  'Object1'  # Data Set 6: Layer Row Column Shead IFACE Temperature boundname
     1     5     1  2.000000000000E+000      0  4.000000000000E+001  'Object1'  # Data Set 6: Layer Row Column Shead IFACE Temperature boundname
     1     6     1  2.000000000000E+000      0  4.000000000000E+001  'Object1'  # Data Set 6: Layer Row Column Shead IFACE Temperature boundname
     1     7     1  2.000000000000E+000      0  4.000000000000E+001  'Object1'  # Data Set 6: Layer Row Column Shead IFACE Temperature boundname
     1     8     1  2.000000000000E+000      0  4.000000000000E+001  'Object1'  # Data Set 6: Layer Row Column Shead IFACE Temperature boundname
     1     9     1  2.000000000000E+000      0  4.000000000000E+001  'Object1'  # Data Set 6: Layer Row Column Shead IFACE Temperature boundname
     1    10     1  2.000000000000E+000      0  4.000000000000E+001  'Object1'  # Data Set 6: Layer Row Column Shead IFACE Temperature boundname
END PERIOD 

