# DSP: GWT Dispersion Package file created on 11/17/2023 by ModelMuse version 5.1.1.45.
BEGIN OPTIONS
  XT3D_OFF
END OPTIONS

BEGIN GRIDDATA
  DIFFC LAYERED IPRN    12
    CONSTANT   1.840265000000E-006  # DIFFC 1

  ALH LAYERED IPRN    12
    CONSTANT   1.000000000000E+001  # ALH 1

  ATH1 LAYERED IPRN    12
    CONSTANT   1.000000000000E+000  # ATH1 1

END GRIDDATA

