# IMS: Iterative Model Solution file created on 11/17/2023 by ModelMuse version 5.1.1.45.
BEGIN OPTIONS
  PRINT_OPTION ALL
  COMPLEXITY SIMPLE
  CSV_OUTER_OUTPUT FILEOUT Viscosity.Temperature.OuterSolution.CSV
  CSV_INNER_OUTPUT FILEOUT Viscosity.Temperature.InnerSolution.CSV
  ATS_OUTER_MAXIMUM_FRACTION  3.333333333333E-001 
END OPTIONS

BEGIN NONLINEAR
  OUTER_DVCLOSE   1.000000000000E-010 
  OUTER_MAXIMUM    100
  UNDER_RELAXATION NONE
  BACKTRACKING_NUMBER     0
END NONLINEAR

BEGIN LINEAR
  INNER_MAXIMUM   300
  INNER_DVCLOSE  1.000000000000E-010 
  INNER_RCLOSE  1.000000000000E-006 
  LINEAR_ACCELERATION BICGSTAB
  SCALING_METHOD NONE
  REORDERING_METHOD NONE
END LINEAR

