# Transport name file for Temperature file created on 11/17/2023 by ModelMuse version 5.1.1.45.
BEGIN OPTIONS
  LIST Viscosity.Temperature.lst
    PRINT_INPUT
    SAVE_FLOWS
END OPTIONS

BEGIN PACKAGES
  DIS6 Viscosity.Temperature.dis
  OC6 Viscosity.Temperature.oc
  ADV6 Viscosity.Temperature.adv
  DSP6 Viscosity.Temperature.dsp
  SSM6 Viscosity.Temperature.ssm
  IC6 Viscosity.Temperature.ic
  MST6 Viscosity.Temperature.mst
END PACKAGES
