# Initial concentration file for Temperature file created on 6/21/2024 by ModelMuse version 5.2.0.18.
BEGIN GRIDDATA
  STRT LAYERED IPRN    12
    CONSTANT   3.500000000000E+001  # STRT 1

END GRIDDATA

