# GHB: General-Head Boundary package file created on 11/17/2023 by ModelMuse version 5.1.1.45.
BEGIN OPTIONS
    AUXILIARY IFACE Temperature
    BOUNDNAMES
    PRINT_INPUT
    SAVE_FLOWS
END OPTIONS

BEGIN DIMENSIONS
  MAXBOUND    10
END DIMENSIONS

BEGIN PERIOD      1
     1     1    80  1.000000000000E+000   1.728000000000E+003      0  3.500000000000E+001  'Object0'  # Data Set 6: Layer Row Column Bhead Cond IFACE Temperature boundname
     1     2    80  1.000000000000E+000   1.728000000000E+003      0  3.500000000000E+001  'Object0'  # Data Set 6: Layer Row Column Bhead Cond IFACE Temperature boundname
     1     3    80  1.000000000000E+000   1.728000000000E+003      0  3.500000000000E+001  'Object0'  # Data Set 6: Layer Row Column Bhead Cond IFACE Temperature boundname
     1     4    80  1.000000000000E+000   1.728000000000E+003      0  3.500000000000E+001  'Object0'  # Data Set 6: Layer Row Column Bhead Cond IFACE Temperature boundname
     1     5    80  1.000000000000E+000   1.728000000000E+003      0  3.500000000000E+001  'Object0'  # Data Set 6: Layer Row Column Bhead Cond IFACE Temperature boundname
     1     6    80  1.000000000000E+000   1.728000000000E+003      0  3.500000000000E+001  'Object0'  # Data Set 6: Layer Row Column Bhead Cond IFACE Temperature boundname
     1     7    80  1.000000000000E+000   1.728000000000E+003      0  3.500000000000E+001  'Object0'  # Data Set 6: Layer Row Column Bhead Cond IFACE Temperature boundname
     1     8    80  1.000000000000E+000   1.728000000000E+003      0  3.500000000000E+001  'Object0'  # Data Set 6: Layer Row Column Bhead Cond IFACE Temperature boundname
     1     9    80  1.000000000000E+000   1.728000000000E+003      0  3.500000000000E+001  'Object0'  # Data Set 6: Layer Row Column Bhead Cond IFACE Temperature boundname
     1    10    80  1.000000000000E+000   1.728000000000E+003      0  3.500000000000E+001  'Object0'  # Data Set 6: Layer Row Column Bhead Cond IFACE Temperature boundname
END PERIOD 

