# Initial concentration file for Temperature file created on 3/10/2025 by ModelMuse version 5.3.1.14.
BEGIN OPTIONS
END OPTIONS

BEGIN GRIDDATA
  STRT LAYERED IPRN    12
    CONSTANT   3.500000000000E+001  # STRT 1

END GRIDDATA

