# VSC: Viscosity Package file created on 11/17/2023 by ModelMuse version 5.1.1.45.
BEGIN OPTIONS
  VISCREF  8.904000000000E-004 
  THERMAL_FORMULATION NONLINEAR
  THERMAL_A2  1.000000000000E+001 
  THERMAL_A3  2.483700000000E+002 
  THERMAL_A4  1.331600000000E+002 
END OPTIONS

BEGIN DIMENSIONS
  NVISCSPECIES     1
END DIMENSIONS

BEGIN PACKAGEDATA
     1  1.000000000000E-001   2.000000000000E+001  Temperature Temperature
END PACKAGEDATA

