# TDIS file created on 11/17/2023 by ModelMuse version 5.1.1.45.

BEGIN OPTIONS
  TIME_UNITS seconds
END OPTIONS

BEGIN DIMENSIONS
  NPER     1
END DIMENSIONS

BEGIN PERIODDATA
    5.000000000000E-001    500  1.000000000000E+000  # perlen nstp tsmult, Stress period      1 Time =  0.000000000000E+000  -  5.000000000000E-001 
END PERIODDATA
