# Name File for MODFLOW created on 11/17/2023 by ModelMuse Version 5.1.1.45
BEGIN OPTIONS
  LIST Viscosity.lst
  PRINT_INPUT
  SAVE_FLOWS
END OPTIONS

BEGIN PACKAGES
  DIS6         Viscosity.dis  DIS
  IC6          Viscosity.ic  IC
  NPF6         Viscosity.npf  NPF
  STO6         Viscosity.sto  STO
  OC6          Viscosity.oc  OC
  CHD6         Viscosity.chd  CHD-1
  GHB6         Viscosity.ghb  GHB-1
  VSC6         Viscosity.vsc  VSC6
END PACKAGES
