# ADV: GWT Advection Package file created on 11/17/2023 by ModelMuse version 5.1.1.45.
BEGIN OPTIONS
  SCHEME upstream
END OPTIONS

