# Name File for MODFLOW created on 12/14/2015 by ModelMuse
LIST             11 WellTest.lst REPLACE
DATA(BINARY)      9 WellTest.cbc REPLACE
DIS              12 WellTest.dis OLD
BAS6             13 WellTest.bas OLD
OC               39 WellTest.oc OLD
DATA             37 WellTest.fhd REPLACE
DATA             38 WellTest.fdn REPLACE
PCG              18 WellTest.pcg OLD
LPF              14 WellTest.lpf OLD
CHD              17 WellTest.chd OLD
WEL              20 WellTest.wel OLD
