# MODFLOW2000 Well Package
PARAMETER  0  0
         0        54
         0         0               Stress Period 1
         0         0               Stress Period 2
