# MODFLOW2000 Basic Package
#MODFLOW Data Set Created by Groundwater Vistas
#   

         1         1(25I3)                      -1     IBOUND Layer   1
  0  0  1  0  0
         1         1(25I3)                      -1     IBOUND Layer   2
  0  0  1  0  0
         1         1(25I3)                      -1     IBOUND Layer   3
  0  0  1  0  0
         1         1(25I3)                      -1     IBOUND Layer   4
  0  0  1  0  0
         1         1(25I3)                      -1     IBOUND Layer   5
  0  0  1  0  0
         1         1(25I3)                      -1     IBOUND Layer   6
  0  0  1  0  0
         1         1(25I3)                      -1     IBOUND Layer   7
  0  0  1  0  0
         1         1(25I3)                      -1     IBOUND Layer   8
  0  0  1  0  0
         1         1(25I3)                      -1     IBOUND Layer   9
  0  0  1  0  0
         1         1(25I3)                      -1     IBOUND Layer  10
  0  0 -1  0  0
-1.000e+30
         0   100.000(10e12.4)                   -1     STARTING HEADS Layer   1
         0   100.000(10e12.4)                   -1     STARTING HEADS Layer   2
         0   100.000(10e12.4)                   -1     STARTING HEADS Layer   3
         0   100.000(10e12.4)                   -1     STARTING HEADS Layer   4
         0   100.000(10e12.4)                   -1     STARTING HEADS Layer   5
         0   100.000(10e12.4)                   -1     STARTING HEADS Layer   6
         0   100.000(10e12.4)                   -1     STARTING HEADS Layer   7
         0   100.000(10e12.4)                   -1     STARTING HEADS Layer   8
         0   100.000(10e12.4)                   -1     STARTING HEADS Layer   9
         0   100.000(10e12.4)                   -1     STARTING HEADS Layer  10
