# MODFLOW2000 Constant-Head Boundary Package (CHD)
         1
         1         0
        10         1         3   100.000    80.000
         1         0
        10         1         3    80.000   100.000
