object frmAutomate: TfrmAutomate
  Left = 0
  Top = 0
  Caption = 'Automater 2'
  ClientHeight = 604
  ClientWidth = 688
  Color = clBtnFace
  Font.Charset = DEFAULT_CHARSET
  Font.Color = clWindowText
  Font.Height = -16
  Font.Name = 'Tahoma'
  Font.Style = []
  Menu = MainMenu1
  ShowHint = True
  OnCreate = FormCreate
  OnDestroy = FormDestroy
  TextHeight = 19
  object pcMain: TPageControl
    Left = 0
    Top = 23
    Width = 688
    Height = 581
    ActivePage = tabRunModels
    Align = alClient
    TabOrder = 1
    ExplicitWidth = 684
    ExplicitHeight = 575
    object tabRunModels: TTabSheet
      Caption = 'Run Models'
      object Label1: TLabel
        Left = 8
        Top = 10
        Width = 137
        Height = 19
        Margins.Bottom = 2
        Caption = 'MODFLOW location'
      end
      object Label2: TLabel
        Left = 8
        Top = 70
        Width = 138
        Height = 19
        Margins.Bottom = 2
        Caption = 'ModelMuse location'
      end
      object Label3: TLabel
        Left = 8
        Top = 126
        Width = 164
        Height = 19
        Margins.Bottom = 2
        Caption = 'ModelMuse file location'
      end
      object Label4: TLabel
        Left = 8
        Top = 180
        Width = 236
        Height = 19
        Margins.Bottom = 2
        Caption = 'Ratio of rectangle length to width'
      end
      object Label9: TLabel
        Left = 291
        Top = 175
        Width = 248
        Height = 19
        Margins.Bottom = 2
        Caption = 'Time-out time for ModelMuse (sec)'
      end
      object Label10: TLabel
        Left = 161
        Top = 391
        Width = 132
        Height = 19
        Margins.Bottom = 2
        Caption = 'Warning messages'
      end
      object Label5: TLabel
        Left = 548
        Top = 404
        Width = 117
        Height = 19
        Margins.Bottom = 2
        Caption = 'NSTP in first SP '
      end
      object Label6: TLabel
        Left = 548
        Top = 454
        Width = 123
        Height = 19
        Margins.Bottom = 2
        Caption = 'Processors to use'
      end
      object lblStart: TLabel
        Left = 0
        Top = 430
        Width = 164
        Height = 19
        Margins.Bottom = 2
        Caption = 'Starting model number'
      end
      object lblEnd: TLabel
        Left = 3
        Top = 485
        Width = 158
        Height = 19
        Margins.Bottom = 2
        Caption = 'Ending model number'
      end
      object feMODFLOW: TJvFilenameEdit
        Left = 8
        Top = 32
        Width = 666
        Height = 27
        Filter = 'Executables (*.exe)|*.exe'
        ButtonWidth = 27
        TabOrder = 0
        Text = 'C:\WRDAPP\MF2005.1_10\bin\mf2005dbl.exe'
      end
      object feModelMuseApplication: TJvFilenameEdit
        Left = 8
        Top = 92
        Width = 666
        Height = 27
        Filter = 'Executables (*.exe)|*.exe'
        ButtonWidth = 27
        TabOrder = 1
        Text = '"C:\Program Files\USGS\ModelMuse2_19_1\bin\ModelMuse.exe"'
      end
      object feModelMuseFile: TJvFilenameEdit
        Left = 9
        Top = 147
        Width = 666
        Height = 27
        Filter = 'ModelMuse file (*.gpt)|*.gpt'
        ButtonWidth = 27
        TabOrder = 2
        Text = ''
      end
      object rdeRatio: TRbwDataEntry
        Left = 8
        Top = 202
        Width = 58
        Height = 22
        TabOrder = 5
        Text = '2'
        DataType = dtReal
        Max = 1.000000000000000000
        Min = 1.000000000000000000
        CheckMin = True
        ChangeDisabledColor = True
      end
      object rdgBasinAreas: TRbwDataGrid4
        Left = 8
        Top = 230
        Width = 146
        Height = 193
        ColCount = 1
        DefaultColWidth = 51
        DefaultRowHeight = 19
        FixedCols = 0
        RowCount = 21
        Options = [goFixedVertLine, goFixedHorzLine, goVertLine, goHorzLine, goRangeSelect, goEditing, goAlwaysShowEditor]
        TabOrder = 7
        ExtendedAutoDistributeText = False
        AutoMultiEdit = False
        AutoDistributeText = True
        AutoIncreaseColCount = False
        AutoIncreaseRowCount = True
        SelectedRowOrColumnColor = clAqua
        UnselectableColor = clBtnFace
        ColorRangeSelection = False
        Columns = <
          item
            AutoAdjustRowHeights = True
            AutoAdjustCaptionRowHeights = False
            ButtonCaption = '...'
            ButtonFont.Charset = DEFAULT_CHARSET
            ButtonFont.Color = clWindowText
            ButtonFont.Height = -11
            ButtonFont.Name = 'Tahoma'
            ButtonFont.Style = []
            ButtonUsed = False
            ButtonWidth = 20
            CheckMax = False
            CheckMin = True
            ComboUsed = False
            Format = rcf4Real
            LimitToList = False
            MaxLength = 0
            ParentButtonFont = False
            WordWrapCaptions = False
            WordWrapCells = False
            CaseSensitivePicklist = False
            CheckStyle = csCheck
            AutoAdjustColWidths = True
          end>
        WordWrapRowCaptions = False
        RowHeights = (
          23
          23
          23
          23
          23
          23
          23
          23
          23
          23
          23
          23
          23
          23
          23
          23
          23
          23
          23
          23
          23)
      end
      object seTimeOut: TJvSpinEdit
        Left = 291
        Top = 197
        Width = 107
        Height = 27
        Increment = 60.000000000000000000
        MaxValue = 2147483647.000000000000000000
        MinValue = 1.000000000000000000
        Value = 120.000000000000000000
        TabOrder = 3
      end
      object rdgKv: TRbwDataGrid4
        Left = 162
        Top = 230
        Width = 146
        Height = 155
        ColCount = 1
        DefaultColWidth = 51
        DefaultRowHeight = 19
        FixedCols = 0
        RowCount = 6
        Options = [goFixedVertLine, goFixedHorzLine, goVertLine, goHorzLine, goRangeSelect, goEditing, goAlwaysShowEditor]
        TabOrder = 8
        ExtendedAutoDistributeText = False
        AutoMultiEdit = False
        AutoDistributeText = True
        AutoIncreaseColCount = False
        AutoIncreaseRowCount = True
        SelectedRowOrColumnColor = clAqua
        UnselectableColor = clBtnFace
        ColorRangeSelection = False
        Columns = <
          item
            AutoAdjustRowHeights = True
            AutoAdjustCaptionRowHeights = False
            ButtonCaption = '...'
            ButtonFont.Charset = DEFAULT_CHARSET
            ButtonFont.Color = clWindowText
            ButtonFont.Height = -11
            ButtonFont.Name = 'Tahoma'
            ButtonFont.Style = []
            ButtonUsed = False
            ButtonWidth = 20
            CheckMax = False
            CheckMin = True
            ComboUsed = False
            Format = rcf4Real
            LimitToList = False
            MaxLength = 0
            ParentButtonFont = False
            WordWrapCaptions = False
            WordWrapCells = False
            CaseSensitivePicklist = False
            CheckStyle = csCheck
            AutoAdjustColWidths = True
          end>
        WordWrapRowCaptions = False
        RowHeights = (
          23
          23
          23
          23
          23
          23)
      end
      object cbRunModflow: TCheckBox
        Left = 422
        Top = 197
        Width = 252
        Height = 17
        Caption = 'Run MODFLOW automatically'
        Checked = True
        State = cbChecked
        TabOrder = 4
      end
      object rdgSy: TRbwDataGrid4
        Left = 314
        Top = 228
        Width = 146
        Height = 155
        ColCount = 1
        DefaultColWidth = 51
        DefaultRowHeight = 19
        FixedCols = 0
        RowCount = 3
        Options = [goFixedVertLine, goFixedHorzLine, goVertLine, goHorzLine, goRangeSelect, goEditing, goAlwaysShowEditor]
        TabOrder = 6
        ExtendedAutoDistributeText = False
        AutoMultiEdit = False
        AutoDistributeText = True
        AutoIncreaseColCount = False
        AutoIncreaseRowCount = True
        SelectedRowOrColumnColor = clAqua
        UnselectableColor = clBtnFace
        ColorRangeSelection = False
        Columns = <
          item
            AutoAdjustRowHeights = True
            AutoAdjustCaptionRowHeights = False
            ButtonCaption = '...'
            ButtonFont.Charset = DEFAULT_CHARSET
            ButtonFont.Color = clWindowText
            ButtonFont.Height = -11
            ButtonFont.Name = 'Tahoma'
            ButtonFont.Style = []
            ButtonUsed = False
            ButtonWidth = 20
            CheckMax = False
            CheckMin = True
            ComboUsed = False
            Format = rcf4Real
            LimitToList = False
            MaxLength = 0
            ParentButtonFont = False
            WordWrapCaptions = False
            WordWrapCells = False
            CaseSensitivePicklist = False
            CheckStyle = csCheck
            AutoAdjustColWidths = True
          end>
        WordWrapRowCaptions = False
        RowHeights = (
          23
          23
          23)
      end
      object rdgBasinDepth: TRbwDataGrid4
        Left = 466
        Top = 230
        Width = 146
        Height = 155
        ColCount = 1
        DefaultColWidth = 51
        DefaultRowHeight = 19
        FixedCols = 0
        RowCount = 6
        Options = [goFixedVertLine, goFixedHorzLine, goVertLine, goHorzLine, goRangeSelect, goEditing, goAlwaysShowEditor]
        TabOrder = 9
        ExtendedAutoDistributeText = False
        AutoMultiEdit = False
        AutoDistributeText = True
        AutoIncreaseColCount = False
        AutoIncreaseRowCount = True
        SelectedRowOrColumnColor = clAqua
        UnselectableColor = clBtnFace
        ColorRangeSelection = False
        Columns = <
          item
            AutoAdjustRowHeights = True
            AutoAdjustCaptionRowHeights = False
            ButtonCaption = '...'
            ButtonFont.Charset = DEFAULT_CHARSET
            ButtonFont.Color = clWindowText
            ButtonFont.Height = -11
            ButtonFont.Name = 'Tahoma'
            ButtonFont.Style = []
            ButtonUsed = False
            ButtonWidth = 20
            CheckMax = False
            CheckMin = True
            ComboUsed = False
            Format = rcf4Real
            LimitToList = False
            MaxLength = 0
            ParentButtonFont = False
            WordWrapCaptions = False
            WordWrapCells = False
            CaseSensitivePicklist = False
            CheckStyle = csCheck
            AutoAdjustColWidths = True
          end>
        WordWrapRowCaptions = False
        RowHeights = (
          23
          23
          23
          23
          23
          23)
      end
      object btnRun: TButton
        Left = 338
        Top = 508
        Width = 76
        Height = 26
        Caption = 'Run'
        TabOrder = 18
        OnClick = btnTestThreadClick
      end
      object btnAbort: TBitBtn
        Left = 420
        Top = 507
        Width = 76
        Height = 26
        Enabled = False
        Kind = bkAbort
        NumGlyphs = 2
        TabOrder = 19
        OnClick = btnAbortClick
      end
      object memoErrors: TMemo
        Left = 172
        Top = 414
        Width = 370
        Height = 69
        ScrollBars = ssBoth
        TabOrder = 10
      end
      object FillTable: TButton
        Left = 303
        Top = 507
        Width = 17
        Height = 26
        Caption = 'Fill results table without generating output'
        Enabled = False
        TabOrder = 17
        Visible = False
        OnClick = btnRunClick
      end
      object rdeNSTP: TRbwDataEntry
        Left = 548
        Top = 426
        Width = 100
        Height = 23
        TabOrder = 11
        Text = '40'
        DataType = dtInteger
        Max = 1.000000000000000000
        Min = 1.000000000000000000
        CheckMin = True
        ChangeDisabledColor = True
      end
      object pb1: TProgressBar
        Left = 338
        Top = 484
        Width = 152
        Height = 18
        Max = 2
        Step = 1
        TabOrder = 14
      end
      object seProcessors: TJvSpinEdit
        Left = 548
        Top = 474
        Width = 96
        Height = 27
        CheckMaxValue = False
        MinValue = 1.000000000000000000
        Value = 1.000000000000000000
        BiDiMode = bdLeftToRight
        ParentBiDiMode = False
        TabOrder = 13
      end
      object cbRestart: TCheckBox
        Left = 514
        Top = 511
        Width = 98
        Height = 18
        Caption = 'Restart'
        TabOrder = 20
      end
      object seStart: TJvSpinEdit
        Left = 0
        Top = 452
        Width = 130
        Height = 27
        MaxValue = 2147483647.000000000000000000
        MinValue = 1.000000000000000000
        Value = 1.000000000000000000
        TabOrder = 12
      end
      object seEnd: TJvSpinEdit
        Left = 3
        Top = 507
        Width = 127
        Height = 27
        MaxValue = 2147483647.000000000000000000
        MinValue = 1.000000000000000000
        Value = 2147483647.000000000000000000
        TabOrder = 16
      end
      object rgMethod: TRadioGroup
        Left = 172
        Top = 488
        Width = 126
        Height = 54
        Margins.Left = 2
        Margins.Top = 2
        Margins.Right = 2
        Margins.Bottom = 2
        Caption = 'Method'
        ItemIndex = 0
        Items.Strings = (
          'MODFLOW'
          'Analytic')
        TabOrder = 15
      end
    end
    object tabAnalyzeResults: TTabSheet
      Caption = 'Analyze Results'
      ImageIndex = 1
      object Panel1: TPanel
        Left = 0
        Top = 505
        Width = 680
        Height = 42
        Align = alBottom
        TabOrder = 1
        ExplicitTop = 500
        object btnAnalyze: TButton
          Left = 8
          Top = 5
          Width = 98
          Height = 25
          Caption = 'Get results'
          TabOrder = 0
          OnClick = btnAnalyzeClick
        end
        object Button2: TButton
          Left = 112
          Top = 6
          Width = 180
          Height = 25
          Caption = 'Copy table to clipboard'
          TabOrder = 1
          OnClick = Button2Click
        end
      end
      object Panel2: TPanel
        Left = 0
        Top = 0
        Width = 680
        Height = 505
        Align = alClient
        TabOrder = 0
        ExplicitHeight = 500
        object Splitter1: TSplitter
          Left = 122
          Top = 1
          Width = 5
          Height = 503
          ExplicitHeight = 501
        end
        object rdgResults: TRbwDataGrid4
          Left = 127
          Top = 1
          Width = 552
          Height = 503
          Align = alClient
          ColCount = 13
          DefaultColWidth = 51
          DefaultRowHeight = 19
          FixedCols = 0
          RowCount = 2
          Options = [goFixedVertLine, goFixedHorzLine, goVertLine, goHorzLine, goRangeSelect, goEditing, goAlwaysShowEditor]
          TabOrder = 1
          OnSelectCell = rdgResultsSelectCell
          ExtendedAutoDistributeText = False
          AutoMultiEdit = False
          AutoDistributeText = False
          AutoIncreaseColCount = False
          AutoIncreaseRowCount = False
          SelectedRowOrColumnColor = clAqua
          UnselectableColor = clBtnFace
          ColorRangeSelection = False
          Columns = <
            item
              AutoAdjustRowHeights = True
              AutoAdjustCaptionRowHeights = False
              ButtonCaption = '...'
              ButtonFont.Charset = DEFAULT_CHARSET
              ButtonFont.Color = clWindowText
              ButtonFont.Height = -11
              ButtonFont.Name = 'Tahoma'
              ButtonFont.Style = []
              ButtonUsed = False
              ButtonWidth = 20
              CheckMax = False
              CheckMin = False
              ComboUsed = False
              Format = rcf4String
              LimitToList = False
              MaxLength = 0
              ParentButtonFont = False
              WordWrapCaptions = True
              WordWrapCells = False
              CaseSensitivePicklist = False
              CheckStyle = csCheck
              AutoAdjustColWidths = True
            end
            item
              AutoAdjustRowHeights = True
              AutoAdjustCaptionRowHeights = False
              ButtonCaption = '...'
              ButtonFont.Charset = DEFAULT_CHARSET
              ButtonFont.Color = clWindowText
              ButtonFont.Height = -11
              ButtonFont.Name = 'Tahoma'
              ButtonFont.Style = []
              ButtonUsed = False
              ButtonWidth = 20
              CheckMax = False
              CheckMin = False
              ComboUsed = False
              Format = rcf4String
              LimitToList = False
              MaxLength = 0
              ParentButtonFont = False
              WordWrapCaptions = True
              WordWrapCells = False
              CaseSensitivePicklist = False
              CheckStyle = csCheck
              AutoAdjustColWidths = True
            end
            item
              AutoAdjustRowHeights = True
              AutoAdjustCaptionRowHeights = False
              ButtonCaption = '...'
              ButtonFont.Charset = DEFAULT_CHARSET
              ButtonFont.Color = clWindowText
              ButtonFont.Height = -11
              ButtonFont.Name = 'Tahoma'
              ButtonFont.Style = []
              ButtonUsed = False
              ButtonWidth = 20
              CheckMax = False
              CheckMin = False
              ComboUsed = False
              Format = rcf4String
              LimitToList = False
              MaxLength = 0
              ParentButtonFont = False
              WordWrapCaptions = True
              WordWrapCells = False
              CaseSensitivePicklist = False
              CheckStyle = csCheck
              AutoAdjustColWidths = True
            end
            item
              AutoAdjustRowHeights = True
              AutoAdjustCaptionRowHeights = False
              ButtonCaption = '...'
              ButtonFont.Charset = DEFAULT_CHARSET
              ButtonFont.Color = clWindowText
              ButtonFont.Height = -11
              ButtonFont.Name = 'Tahoma'
              ButtonFont.Style = []
              ButtonUsed = False
              ButtonWidth = 20
              CheckMax = False
              CheckMin = False
              ComboUsed = False
              Format = rcf4String
              LimitToList = False
              MaxLength = 0
              ParentButtonFont = False
              WordWrapCaptions = True
              WordWrapCells = False
              CaseSensitivePicklist = False
              CheckStyle = csCheck
              AutoAdjustColWidths = True
            end
            item
              AutoAdjustRowHeights = True
              AutoAdjustCaptionRowHeights = False
              ButtonCaption = '...'
              ButtonFont.Charset = DEFAULT_CHARSET
              ButtonFont.Color = clWindowText
              ButtonFont.Height = -11
              ButtonFont.Name = 'Tahoma'
              ButtonFont.Style = []
              ButtonUsed = False
              ButtonWidth = 20
              CheckMax = False
              CheckMin = False
              ComboUsed = False
              Format = rcf4String
              LimitToList = False
              MaxLength = 0
              ParentButtonFont = False
              WordWrapCaptions = True
              WordWrapCells = False
              CaseSensitivePicklist = False
              CheckStyle = csCheck
              AutoAdjustColWidths = True
            end
            item
              AutoAdjustRowHeights = True
              AutoAdjustCaptionRowHeights = False
              ButtonCaption = '...'
              ButtonFont.Charset = DEFAULT_CHARSET
              ButtonFont.Color = clWindowText
              ButtonFont.Height = -11
              ButtonFont.Name = 'Tahoma'
              ButtonFont.Style = []
              ButtonUsed = False
              ButtonWidth = 20
              CheckMax = False
              CheckMin = False
              ComboUsed = False
              Format = rcf4String
              LimitToList = False
              MaxLength = 0
              ParentButtonFont = False
              WordWrapCaptions = True
              WordWrapCells = False
              CaseSensitivePicklist = False
              CheckStyle = csCheck
              AutoAdjustColWidths = True
            end
            item
              AutoAdjustRowHeights = True
              AutoAdjustCaptionRowHeights = False
              ButtonCaption = '...'
              ButtonFont.Charset = DEFAULT_CHARSET
              ButtonFont.Color = clWindowText
              ButtonFont.Height = -11
              ButtonFont.Name = 'Tahoma'
              ButtonFont.Style = []
              ButtonUsed = False
              ButtonWidth = 20
              CheckMax = False
              CheckMin = False
              ComboUsed = False
              Format = rcf4String
              LimitToList = False
              MaxLength = 0
              ParentButtonFont = False
              WordWrapCaptions = True
              WordWrapCells = False
              CaseSensitivePicklist = False
              CheckStyle = csCheck
              AutoAdjustColWidths = True
            end
            item
              AutoAdjustRowHeights = True
              AutoAdjustCaptionRowHeights = False
              ButtonCaption = '...'
              ButtonFont.Charset = DEFAULT_CHARSET
              ButtonFont.Color = clWindowText
              ButtonFont.Height = -11
              ButtonFont.Name = 'Tahoma'
              ButtonFont.Style = []
              ButtonUsed = False
              ButtonWidth = 20
              CheckMax = False
              CheckMin = False
              ComboUsed = False
              Format = rcf4String
              LimitToList = False
              MaxLength = 0
              ParentButtonFont = False
              WordWrapCaptions = True
              WordWrapCells = False
              CaseSensitivePicklist = False
              CheckStyle = csCheck
              AutoAdjustColWidths = True
            end
            item
              AutoAdjustRowHeights = True
              AutoAdjustCaptionRowHeights = False
              ButtonCaption = '...'
              ButtonFont.Charset = DEFAULT_CHARSET
              ButtonFont.Color = clWindowText
              ButtonFont.Height = -11
              ButtonFont.Name = 'Tahoma'
              ButtonFont.Style = []
              ButtonUsed = False
              ButtonWidth = 20
              CheckMax = False
              CheckMin = False
              ComboUsed = False
              Format = rcf4String
              LimitToList = False
              MaxLength = 0
              ParentButtonFont = False
              WordWrapCaptions = True
              WordWrapCells = False
              CaseSensitivePicklist = False
              CheckStyle = csCheck
              AutoAdjustColWidths = True
            end
            item
              AutoAdjustRowHeights = True
              AutoAdjustCaptionRowHeights = False
              ButtonCaption = '...'
              ButtonFont.Charset = DEFAULT_CHARSET
              ButtonFont.Color = clWindowText
              ButtonFont.Height = -11
              ButtonFont.Name = 'Tahoma'
              ButtonFont.Style = []
              ButtonUsed = False
              ButtonWidth = 20
              CheckMax = False
              CheckMin = False
              ComboUsed = False
              Format = rcf4String
              LimitToList = False
              MaxLength = 0
              ParentButtonFont = False
              WordWrapCaptions = True
              WordWrapCells = False
              CaseSensitivePicklist = False
              CheckStyle = csCheck
              AutoAdjustColWidths = True
            end
            item
              AutoAdjustRowHeights = True
              AutoAdjustCaptionRowHeights = False
              ButtonCaption = '...'
              ButtonFont.Charset = DEFAULT_CHARSET
              ButtonFont.Color = clWindowText
              ButtonFont.Height = -11
              ButtonFont.Name = 'Tahoma'
              ButtonFont.Style = []
              ButtonUsed = False
              ButtonWidth = 20
              CheckMax = False
              CheckMin = False
              ComboUsed = False
              Format = rcf4String
              LimitToList = False
              MaxLength = 0
              ParentButtonFont = False
              WordWrapCaptions = True
              WordWrapCells = False
              CaseSensitivePicklist = False
              CheckStyle = csCheck
              AutoAdjustColWidths = True
            end
            item
              AutoAdjustRowHeights = False
              AutoAdjustCaptionRowHeights = False
              ButtonCaption = '...'
              ButtonFont.Charset = DEFAULT_CHARSET
              ButtonFont.Color = clWindowText
              ButtonFont.Height = -11
              ButtonFont.Name = 'Tahoma'
              ButtonFont.Style = []
              ButtonUsed = False
              ButtonWidth = 20
              CheckMax = False
              CheckMin = False
              ComboUsed = False
              Format = rcf4String
              LimitToList = False
              MaxLength = 0
              ParentButtonFont = False
              WordWrapCaptions = True
              WordWrapCells = False
              CaseSensitivePicklist = False
              CheckStyle = csCheck
              AutoAdjustColWidths = True
            end
            item
              AutoAdjustRowHeights = False
              AutoAdjustCaptionRowHeights = False
              ButtonCaption = '...'
              ButtonFont.Charset = DEFAULT_CHARSET
              ButtonFont.Color = clWindowText
              ButtonFont.Height = -11
              ButtonFont.Name = 'Tahoma'
              ButtonFont.Style = []
              ButtonUsed = False
              ButtonWidth = 20
              CheckMax = False
              CheckMin = False
              ComboUsed = False
              Format = rcf4String
              LimitToList = False
              MaxLength = 0
              ParentButtonFont = False
              WordWrapCaptions = True
              WordWrapCells = False
              CaseSensitivePicklist = False
              CheckStyle = csCheck
              AutoAdjustColWidths = True
            end>
          WordWrapRowCaptions = False
          ExplicitHeight = 498
          RowHeights = (
            23
            23)
        end
        object rdgFixedDistances: TRbwDataGrid4
          Left = 1
          Top = 1
          Width = 121
          Height = 503
          Align = alLeft
          ColCount = 1
          DefaultColWidth = 51
          DefaultRowHeight = 19
          FixedCols = 0
          RowCount = 20
          Options = [goFixedVertLine, goFixedHorzLine, goVertLine, goHorzLine, goRangeSelect, goEditing, goAlwaysShowEditor]
          TabOrder = 0
          ExtendedAutoDistributeText = False
          AutoMultiEdit = False
          AutoDistributeText = True
          AutoIncreaseColCount = False
          AutoIncreaseRowCount = True
          SelectedRowOrColumnColor = clAqua
          UnselectableColor = clBtnFace
          ColorRangeSelection = False
          Columns = <
            item
              AutoAdjustRowHeights = True
              AutoAdjustCaptionRowHeights = False
              ButtonCaption = '...'
              ButtonFont.Charset = DEFAULT_CHARSET
              ButtonFont.Color = clWindowText
              ButtonFont.Height = -11
              ButtonFont.Name = 'Tahoma'
              ButtonFont.Style = []
              ButtonUsed = False
              ButtonWidth = 20
              CheckMax = False
              CheckMin = True
              ComboUsed = False
              Format = rcf4Real
              LimitToList = False
              MaxLength = 0
              ParentButtonFont = False
              WordWrapCaptions = True
              WordWrapCells = False
              CaseSensitivePicklist = False
              CheckStyle = csCheck
              AutoAdjustColWidths = True
            end>
          WordWrapRowCaptions = False
          ExplicitHeight = 498
          RowHeights = (
            23
            23
            23
            23
            23
            23
            23
            23
            23
            23
            23
            23
            23
            23
            23
            23
            23
            23
            23
            23)
        end
      end
    end
  end
  object ToolBar: TToolBar
    Left = 0
    Top = 0
    Width = 688
    Height = 23
    Margins.Left = 2
    Margins.Top = 2
    Margins.Right = 2
    Margins.Bottom = 2
    Caption = 'ToolBar'
    Images = ImageList1
    TabOrder = 0
    ExplicitWidth = 684
    object ToolButton1: TToolButton
      Left = 0
      Top = 0
      Hint = 'Open Automater file'
      Margins.Left = 2
      Margins.Top = 2
      Margins.Right = 2
      Margins.Bottom = 2
      Caption = 'Open'
      ImageIndex = 0
      MenuItem = Open1
    end
    object ToolButton2: TToolButton
      Left = 23
      Top = 0
      Hint = 'Save Automater file'
      Margins.Left = 2
      Margins.Top = 2
      Margins.Right = 2
      Margins.Bottom = 2
      Caption = 'Save'
      ImageIndex = 1
      MenuItem = Save1
    end
    object ToolButton3: TToolButton
      Left = 46
      Top = 0
      Hint = 'Exit'
      Margins.Left = 2
      Margins.Top = 2
      Margins.Right = 2
      Margins.Bottom = 2
      Caption = 'Exit'