xul -3.591307599133E+003 
yul  2.885126819244E+003 
rotation  0.000000000000E+000 
length_units feet
time_units seconds
start_date 12/30/1899
start_time 0:0:0
model MODFLOW-2005
epsg Unknown
