{TODO : Add a way to display the mass budget summary (.mass) file from MT3DMS}
 