unit ErrorMessages;

interface

uses Classes, Generics.Collections;

type
  TAnsiStringList = TList<AnsiString>;

var
  ErrorValues: TAnsiStringList;
  WarningValues: TAnsiStringList;

  // These are error messages that start with a number.
  NumberErrorValues: TAnsiStringList;

implementation


Procedure AssignErrorStrings;
begin
    ErrorValues.Add('INVALID VALUE FOR IFREQ PARAMETER:');
    ErrorValues.Add('INSUFFICIENT MEMORY FOR DE4 SOLVER:');
    ErrorValues.Add('ERROR IN GMG INPUT');
    ErrorValues.Add('ALLOCATION ERROR IN SUBROUTINE GMG1ALG');
    ErrorValues.Add('GMG ASSEMBLY ERROR IN SUBROUTINE GMG1AP');
    ErrorValues.Add('DIS file must be specified for MODFLOW to run');
    ErrorValues.Add('SSFLAG MUST BE EITHER "SS" OR "TR"');
    ErrorValues.Add('STOP EXECUTION');
    ErrorValues.Add('THERE MUST BE AT LEAST ONE TIME STEP IN EVERY STRESS PERIOD');
    ErrorValues.Add('PERLEN MUST NOT BE 0.0 FOR TRANSIENT STRESS PERIODS');
    ErrorValues.Add('TSMULT MUST BE GREATER THAN 0.0');
    ErrorValues.Add('PERLEN CANNOT BE LESS THAN 0.0 FOR ANY STRESS PERIOD');
    ErrorValues.Add('ERROR READING OUTPUT CONTROL INPUT DATA:');
    ErrorValues.Add('CANNOT OPEN');
    ErrorValues.Add('FIRST ENTRY IN NAME FILE MUST BE "LIST".');
    ErrorValues.Add('ILLEGAL FILE TYPE IN NAME FILE:');
    ErrorValues.Add('NAME FILE IS EMPTY.');
    ErrorValues.Add('BAS PACKAGE FILE HAS NOT BEEN OPENED.');
    ErrorValues.Add('ERROR OPENING FILE');
    ErrorValues.Add('ARRAY OPERAND HAS NOT BEEN PREVIOUSLY DEFINED:');
    ErrorValues.Add('NPVAL IN PARAMETER INPUT FILE MUST BE');
    ErrorValues.Add('BUT THE MAXIMUM NUMBER OF PARAMETERS IS');
    ErrorValues.Add('ERROR FOUND IN PARAMETER INPUT FILE.  SEARCH ABOVE');
    ErrorValues.Add('ERROR ENCOUNTERED IN READING PARAMETER INPUT FILE');
//    ErrorValues.Add('IS GREATER THAN');
    ErrorValues.Add('IS GREATER THAN MXACTC');
    ErrorValues.Add('NO-FLOW CELLS CANNOT BE CONVERTED TO SPECIFIED HEAD');
    ErrorValues.Add('IS GREATER THAN MXACTD');
    ErrorValues.Add('IS GREATER THAN MXADRT');
    ErrorValues.Add('is outside of the grid');
    ErrorValues.Add('Blank parameter name in the');
    ErrorValues.Add('Parameter type conflict:');
    ErrorValues.Add('Blank instance name');
    ErrorValues.Add('file specifies undefined instance');
    ErrorValues.Add('*** ERROR: PARAMETER');
    ErrorValues.Add('IS GREATER THAN THE MAXIMUM ALLOWED');
    ErrorValues.Add('file specifies an undefined parameter');
    ErrorValues.Add('Parameter type must be');
    ErrorValues.Add('ILLEGAL ET OPTION CODE');
    ErrorValues.Add('INVALID LAYER NUMBER IN IEVT FOR COLUMN');
    ErrorValues.Add('SIMULATION ABORTING');
    ErrorValues.Add('Aborting. Weights for Auxiliary variables cannot');
    ErrorValues.Add('ABORTING');
    ErrorValues.Add('*** ERROR');
    ErrorValues.Add('IS GREATER THAN MXACTB');
    ErrorValues.Add('INSTANCES ARE NOT SUPPORTED FOR HFB');
    ErrorValues.Add('ERROR DETECTED IN LOCATION DATA OF BARRIER NO.');
    ErrorValues.Add('LAYWT is not 0 and LTHUF is 0 for layer:');
    ErrorValues.Add('Invalid parameter type');
    ErrorValues.Add('Simulation is transient and no storage parameters are');
    ErrorValues.Add('Simulation is steady state and storage parameters are');
    ErrorValues.Add('Simulation is transient and has convertible');
    ErrorValues.Add('Simulation has SYTP parameter(s) defined but has a');
    ErrorValues.Add('STOP SGWF2HUF7VKA');
    ErrorValues.Add('CONSTANT-HEAD CELL WENT DRY');
    ErrorValues.Add('Sy not defined for cell at');
    ErrorValues.Add('***ERROR***');
    ErrorValues.Add('INTERBED STORAGE INAPPROPRIATE FOR A STEADY-STATE');
    ErrorValues.Add('GSFLOW-1.0 cannot simulate transport');
    ErrorValues.Add('--program stopping');
    ErrorValues.Add('MAXIMUM NUMBER OF GRID CELLS ADJACENT TO LAKES');
    ErrorValues.Add('LAK Package requires BCF or LPF');
    ErrorValues.Add('PROGRAM STOPPING');
    ErrorValues.Add('ERROR - NO AQUIFER UNDER LAKE CELL');
    ErrorValues.Add('***NLAKES too large for BUFF in Subroutine GWF2');
    ErrorValues.Add('LAYWET is not 0 and LAYTYP is 0 for layer');
    ErrorValues.Add('LAYWET must be 0 if LAYTYP is 0');
    ErrorValues.Add('IS AN INVALID LAYAVG VALUE -- MUST BE 0, 1, or 2');
    ErrorValues.Add('Negative cell thickness at (layer,row,col)');
    ErrorValues.Add('NO LAYERS WITH INTERBED STORAGE');
    ErrorValues.Add('SUBSIDENCE CANNOT BE USED');
    ErrorValues.Add('SIMULATION ABORTED');
    ErrorValues.Add('Negative confining bed thickness below cell (Layer,row,col)');
    ErrorValues.Add('exceeds maximum of');
    ErrorValues.Add('IS GREATER THAN mxwel2');
    ErrorValues.Add('ERROR opening auxillary input file');
    ErrorValues.Add('ILLEGAL RECHARGE OPTION CODE');
    ErrorValues.Add('INVALID LAYER NUMBER IN IRCH');
    ErrorValues.Add('IS GREATER THAN MXACTR');
    ErrorValues.Add('SEGMENT MUST BE GREATER THAN 0 AND LESS THAN NSS');
    ErrorValues.Add('SEGMENTS MUST BE IN ORDER FROM 1 THROUGH NSS');
    ErrorValues.Add('REACHES MUST BE NUMBERED CONSECUTIVELY');
    ErrorValues.Add('RESIDUAL WATER CONTENT IS EQUAL OR GREATER THAN');
    ErrorValues.Add('INITIAL WATER CONTENT IS GREATER THAN SATURATED');
    ErrorValues.Add('PROGRAM TERMINATED');
    ErrorValues.Add('CANNOT SPECIFY MORE THAN NSS STREAM SEGMENTS');
    ErrorValues.Add('CODE STOPPING');
    ErrorValues.Add('SEGMENT NUMBER (NSEG) OUT OF RANGE:');
    ErrorValues.Add('Blank instance name');
    ErrorValues.Add('GREATER THAN MXACTS');
    ErrorValues.Add('SUBSIDENCE CANNOT BE USED');
    ErrorValues.Add('STOPPING');
    ErrorValues.Add('IMPROPER LAYER ASSIGNMENT');
    ErrorValues.Add('GREATER THAN MXACTW');
    ErrorValues.Add('Duplicate parameter name');
    ErrorValues.Add('The number of parameters has exceeded the maximum');
    ErrorValues.Add('Multiplier array has not been defined');
    ErrorValues.Add('There were no zone values specified in the cluster');
    ErrorValues.Add('Zone array has not been defined');
    ErrorValues.Add('NH LESS THAN OR EQUAL TO 0');
    ErrorValues.Add('ERROR:');
    ErrorValues.Add('An observation cannot be placed');
    ErrorValues.Add('NQTCH LESS THAN OR EQUAL TO 0');
    ErrorValues.Add('SEE ABOVE FOR ERROR MESSAGE');
    ErrorValues.Add('DRAIN PACKAGE OF GWF IS NOT OPEN');
    ErrorValues.Add('NUMBER OF OBSERVATIONS LESS THAN OR EQUAL TO 0');
    ErrorValues.Add('GHB PACKAGE OF GWF IS NOT OPEN');
    ErrorValues.Add('RIVER PACKAGE OF GWF IS NOT OPEN');
    ErrorValues.Add('EXCEEDED THE MAXIMUM NUMBER OF INSTANCES:');
    ErrorValues.Add('The above parameter must be defined prior to its use');
    ErrorValues.Add('Number of parameters exceeds MXPAR');
    ErrorValues.Add('EXCEEDED THE MAXIMUM NUMBER OF LIST ENTRIES:');
    ErrorValues.Add('EXCEEDED THE MAXIMUM NUMBER OF INSTANCES:');
    ErrorValues.Add('Parameter type must be:');
    ErrorValues.Add('ERROR CONVERTING');
    ErrorValues.Add('ERROR READING ARRAY CONTROL RECORD');
    ErrorValues.Add('INVALID INTERBLOCK T CODE:');
    ErrorValues.Add('INVALID LAYER TYPE:');
    ErrorValues.Add('LAYER TYPE 1 IS ONLY ALLOWED IN TOP LAYER');
    ErrorValues.Add('FAILED TO MEET SOLVER CONVERGENCE CRITERIA');
    ErrorValues.Add('nlakes dimension problem in lak7');
    ErrorValues.Add('MAXIMUM NUMBER OF GRID CELLS ADJACENT TO LAKES HAS BEEN EXCEEDED WITH CELL');
    ErrorValues.Add('LAK Package requires BCF, LPF, or HUF');
    ErrorValues.Add('THIS WILL CAUSE PROBLEMS IN COMPUTING LAKE STAGE USING THE NEWTON METHOD.');
    //    ErrorValues.Add('***NLAKES too large for BUFF in Subroutine GWF2LAK7SFR7RPS***  STOP EXECUTION');
    ErrorValues.Add('FAILED TO CONVERGE');
    ErrorValues.Add('Can''t find name file');
    ErrorValues.Add('INVALID INPUT FOR GRIDSTATUS IN LGR INPUT FILE:');
    ErrorValues.Add('GRIDSTATUS MUST BE PARENTONLY, CHILDONLY, OR PARENTANDCHILD');
    ErrorValues.Add('IBFLG MUST BE < 0 FOR CHILD GRID');
    ErrorValues.Add('RELAXATION FACTORS RELAXH AND RELAXF MUST BE > 0');
    ErrorValues.Add('NPLBEG IS NOT = 1  REFINEMENT MUST BEGIN IN TOP LAYER');
    ErrorValues.Add('NCPP MUST BE AN ODD INTEGER');
    ErrorValues.Add('NROW AND NCPP DOES NOT ALIGN WITH NPREND - NPRBEG');
    ErrorValues.Add('NCOL AND NCPP DOES NOT ALIGN WITH NPCEND - NPCBEG');
    ErrorValues.Add('NCPPL MUST BE AN ODD INTEGER');
    ErrorValues.Add('VERTICAL REFINEMENT DOES NOT ALIGN WITH NLAY');
    ErrorValues.Add('HEAD BELOW BOTTOM AT SHARED NODE');
    ErrorValues.Add('INVALID INPUT IN BFH FILE:');
    ErrorValues.Add('ISCHILD AND BTEXT ARE NOT COMPATIBLE');
    ErrorValues.Add('MNW1 and MNW2 cannot both be active in the same grid');
    ErrorValues.Add('MNW1 and MNW2 cannot both be active in the same simulation');
    ErrorValues.Add('Failure to converge');
    ErrorValues.Add('NSTACK too small in index');
    ErrorValues.Add('ELEVATION OF STREAM OUTLET MUST BE GREATER THAN OR EQUAL TO THE LOWEST ELEVATION OF THE LAKE.');
    ErrorValues.Add('If the BCF Package is used and unsaturated flow is active then ISFROPT must equal 3 or 5.');
    ErrorValues.Add('Streambed has lower altitude than GW cell bottom. Model stopping');
    ErrorValues.Add('STOPPING SIMULATION');
    ErrorValues.Add('***ERROR: MNW2 PACKAGE DOES NOT SUPPORT');
    ErrorValues.Add('*** BAD RECORD ENCOUNTERED, PCGN DATA INPUT ***');
    ErrorValues.Add('***BAD DATA READ, SUBROUTINE PCGNRP***');
    ErrorValues.Add('UNABLE TO ALLOCATE STORAGE REQUIRED FOR PCG SOLVER');
    ErrorValues.Add('ERROR ENCOUNTERED IN SUBROUTINE PCGNRP');
    ErrorValues.Add('ERROR ENCOUNTERED IN SUBROUTINE PCG_INIT');
    ErrorValues.Add('ERROR ENCOUNTERED IN SUBROUTINE PCG');
    ErrorValues.Add('DIMENSION MISMATCH DISCOVERED');
    ErrorValues.Add('UNKNOWN ERROR');
    ErrorValues.Add('DID NOT CONVERGE');
    ErrorValues.Add('Allocation error in subroutine PCG_init');
    ErrorValues.Add('ARRAY DIAG CONTAINS A NEGATIVE ELEMENT AT NODE');
    ErrorValues.Add('Allocation error in subroutine PCG');
    ErrorValues.Add('Dimension mismatch in subroutine PCG');
    ErrorValues.Add('NOT DEFINED FOR PARAMETER TYPE');
    ErrorValues.Add('HUF and LAK cannot be used together in a simulation');
    ErrorValues.Add('IS LISTED MORE THAN ONCE IN PARAMETER FILE');
    ErrorValues.Add('IN PARAMETER INPUT FILE HAS NOT BEEN DEFINED');
    ErrorValues.Add('ERROR: Proportion must be between 0.0 and 1.0');
    ErrorValues.Add('ERROR DETECTED IN LOCATION DATA OF BARRIER');
    ErrorValues.Add('LAYWT must be 0 if LTHUF is 0');
    ErrorValues.Add('Vertical K is zero in row');
    ErrorValues.Add('Horizontal K is zero in row');
    ErrorValues.Add('MULTKDEP is zero in row');
    ErrorValues.Add('LVDA cannot calculate sensitivities');
    ErrorValues.Add('LAYVKA entered for layer');
    ErrorValues.Add('parameters of type VK can apply only to layers for which');
    ErrorValues.Add('parameters of type VANI can apply only to layers for which');
    ErrorValues.Add('MNWOBS MUST BE > 0');
    ErrorValues.Add('ALLOCATION OF MNW ROUTING ARRAY FAILED');
    ErrorValues.Add('MNW2 NODE ARRAY ALLOCATION INSUFFICIENT');
    ErrorValues.Add('MNW2 Node not in grid; Layer, Row, Col=');
    ErrorValues.Add('ILLEGAL OPTION CODE. SIMULATION ABORTING');
    ErrorValues.Add('Model stopping');
    ErrorValues.Add('CANNOT BE READ FROM RESTART RECORDS');
    ErrorValues.Add('IMPROPER LAYER ASSIGNMENT FOR SUB-WT SYSTEM OF');
    ErrorValues.Add('SUB-WT CANNOT BE USED IN CONJUNCTION WITH QUASI-3D');
    ErrorValues.Add('NEGATIVE EFFECTIVE STRESS VALUE AT (ROW,COL,LAY):');
    ErrorValues.Add('ERROR READING LMT PACKAGE INPUT DATA');
    ErrorValues.Add('ERROR IN LMT PACKAGE INPT DATA:');
    ErrorValues.Add('ERROR IN LMT PACKAGE INPUT DATA:');
    ErrorValues.Add('BETWEEN 1 AND NPER (OF THE DISCRETIZATION INPUT FILE');
    ErrorValues.Add('STREAMFLOW PACKAGE OF GWF IS NOT OPEN');
    ErrorValues.Add('Package has not been defined');
    ErrorValues.Add('MATRIX IS SEVERELY NON-DIAGONALLY DOMINANT');
    ErrorValues.Add('CONJUGATE-GRADIENT METHOD FAILED');
    ErrorValues.Add('DIVIDE BY 0 IN SIP AT LAYER');

//    ErrorValues.Add('NOT FOUND (STOP EXECUTION(GWF2HUF7RPGD))');

    NumberErrorValues.Add('CLUSTERS WERE SPECIFIED, BUT THERE IS SPACE FOR ONLY');
    NumberErrorValues.Add(' NaN');

    // MODFLOW-NWT
    ErrorValues.Add('THIS WILL CAUSE PROBLEMS IN COMPUTING LAKE STAGE USING THE NEWTON METHOD.');
    ErrorValues.Add('***ERROR: MNW PACKAGE DOES NOT SUPPORT HEAD-DEPENDENT');
    ErrorValues.Add('THICKNESS OPTION OF SELECTED FLOW PACKAGE');
    ErrorValues.Add('(MNW DOES FULLY SUPPORT BCF, LPF, AND HUF PACKAGES)');
    ErrorValues.Add('NSTRM IS NEGATIVE AND THIS METHOD FOR SPECIFYING INFORMATION BY REACH HAS BEEN REPLACED BY THE KEYWORD OPTION "REACHINPUT"--PROGRAM STOPPING');
    ErrorValues.Add('Streambed has lower altitude than GW cell bottom. Model stopping');
    ErrorValues.Add('TOO MANY WAVES IN UNSAT CELL');
    ErrorValues.Add('PROGRAM TERMINATED IN UZFLOW-1');
    ErrorValues.Add('***Erroneous value for Input value "Options."***');
    ErrorValues.Add('Check input. Model Stopping.');
    ErrorValues.Add('***Incorrect value for Linear solution method specified. Check input.***');
    ErrorValues.Add('Error in Preconditioning:');
    ErrorValues.Add('Linear solver failed to converge:');
    ErrorValues.Add('Error in gmres: ');
    ErrorValues.Add('***Incorrect value for variable Nonmeth was specified. Check input.***');
    ErrorValues.Add('error in data structure!!');
    ErrorValues.Add('too many iterations!!');
    ErrorValues.Add('error in xmdsfacl');
    ErrorValues.Add('no diagonal in L\U:  row number');
    ErrorValues.Add('error in min. degree ordering');
    ErrorValues.Add('error in subroutine xmdRedBlack');
    ErrorValues.Add('need more space in integer temp. array');
    ErrorValues.Add('error in red-black ordering');
    ErrorValues.Add('error in xmdnfctr (xmbnfac)');
    ErrorValues.Add('error in xmdprpc (xmdordng)');
    ErrorValues.Add('error in xmdprpc (xmdrowrg)');
    ErrorValues.Add('error in xmdprecl (xmdsfacl)');
    ErrorValues.Add('error in xmdprecd (xmdsfacd)');
    ErrorValues.Add('error in xmdcheck');
    ErrorValues.Add('SWR PROCESS REQUIRES LAYCON OF 1 OR 3 FOR');
    ErrorValues.Add('SWR PROCESS REQUIRES USE OF THE BCF, LPF,');
    ErrorValues.Add('COULD NOT PARSE NTABRCH FOR TABULAR DATA ITEM');
    ErrorValues.Add('CONFINED AQUIFERS CANNOT BE SIMULATED WITH SWR');
    ErrorValues.Add('FLOW PACKAGE SPECIFIED INCONSISTENT WITH SWR');
    ErrorValues.Add('SWR 4D: COULD NOT PARSE NTABRCH');
    ErrorValues.Add('ERROR CANNOT REUSE');
    ErrorValues.Add('ERROR REACH ITEM');
    ErrorValues.Add('MUST BE GREATER THAN');
    // THETA MUST BE LESS THAN is an informative message not an error message.
//    ErrorValues.Add('MUST BE LESS THAN');
    ErrorValues.Add('MUST BE LESS THAN OR');
    ErrorValues.Add('MUST BE LESS THAN 4');
    ErrorValues.Add('MUST NOT EQUAL');
    ErrorValues.Add('RTMAX EXCEEDS MODFLOW DELT');
    ErrorValues.Add('REACHNO EXCEEDS NREACHES');
    ErrorValues.Add('REACHNO LESS THAN ONE');
    ErrorValues.Add('NCONN LESS THAN ZERO');
    ErrorValues.Add('ICONN EXCEEDS NREACHES');
    ErrorValues.Add('ICONN LESS THAN ONE');
    ErrorValues.Add('REACH LAYER EXCEEDS NLAY');
    ErrorValues.Add('REACH ROW EXCEEDS NROW');
    ErrorValues.Add('REACH COL EXCEEDS NCOL');
    ErrorValues.Add('MUST BE EQUAL TO NREACHES');
    ErrorValues.Add('MUST NOT EXCEED NREACHES');
    ErrorValues.Add('ERROR SPECIFYING ISWRBND');
    ErrorValues.Add('POSITIVE REACH RAIN VALUE REQUIRED');
    ErrorValues.Add('POSITIVE REACH EVAP VALUE REQUIRED');
    ErrorValues.Add('ISTRRCH.LT.1 OR .GT.NREACHES');
    ErrorValues.Add('ISTRNUM.LT.1 OR .GT.REACH(ISTRRCH)%NSTRUCT');
    ErrorValues.Add('SIMULATED SWR1 STAGE STRCRIT ONLY FOR');
    ErrorValues.Add('PROGRAMMING ERROR: UNDEFINED ISTRTYPE');
    ErrorValues.Add('SWR SOLUTION DID NOT CONVERGE');
    ErrorValues.Add('COULD NOT READ FROM UNIT Iu');
    ErrorValues.Add('jstack.GT.nstack GWFSWR');
    ErrorValues.Add('SPECIFIED STRUCTURE CONNECTION ERRORS:');
    ErrorValues.Add('INVALID STRUCTURE CONNECTION FOR REACH');
    ErrorValues.Add('ERRORS IN SPECIFIED REACH');
    ErrorValues.Add('4B: ASSYMETRY IN REACH CONNECTIONS');
    ErrorValues.Add('COULD NOT ALLOCATE RCHGRP(n)%REACH');
    ErrorValues.Add('MULTIPLE DW CONNECTIONS TO THE SAME DW RCHGRP');
    ErrorValues.Add('MULT. ROUTING APPROACHES FOR AT LEAST');
    ErrorValues.Add('KRCH MUST BE SET TO 1 FOR REACH');
    ErrorValues.Add('PROGRAMMING ERROR:');
    ErrorValues.Add('SWR STAGE FILE NOT');
    ErrorValues.Add('NO DATA READ FROM SPECIFIED SWR1 STAGE FILE');
    ErrorValues.Add('REACHES WITH ALTITUDE ERRORS');

    // FMP
    ErrorValues.Add('INPUT-ERROR:');
    ErrorValues.Add('CROP CONSUMPTIVE USE FLAG MUST BE 1,2,3,OR 4!');
    ErrorValues.Add('NON-ROUTED SW-DELIVERY FLAG MUST BE 0 OR 1!');
    ErrorValues.Add('IRDFL MUST BE -1, 0, OR 1!');
    ErrorValues.Add('NOT A VALID ENTRY IF SFR PACKAGE IS USED');
    ErrorValues.Add('ROUTED SW-DELIVERY FLAG MUST BE -1 OR 1!');
    ErrorValues.Add('SOIL-ID CANNOT BE ZERO IN CELLS THAT HOLD A NON-ZERO FARM-ID:');
    ErrorValues.Add('INPUT ERROR:');
    ErrorValues.Add('YOU HAVE TWO OPTIONS TO CORRECT THE ERROR:');
    ErrorValues.Add('FRACTION OF INEFFICIENT LOSSES TO SURFACEWATER RUNOFF');
    ErrorValues.Add('THE SCALE FACTOR DOES NOT APPLY TO ANY FIELD');
    ErrorValues.Add('NUMBER OF CONSTRAINTS NOT EQUAL TO LHS<=RHS + LHS>=RHS + LHS=RHS');
    ErrorValues.Add('BAD INPUT TABLEAU IN LINOPT');
    ErrorValues.Add('ROOT MUST BE BRACKETED IN RTFUNC');
    ErrorValues.Add('TOO MANY BISECTIONS WHEN SOLVING ANALTYICAL FUNCTION');
    ErrorValues.Add('IS GREATER THAN MXACTFW');
    ErrorValues.Add('CANNOT BE COMBINED WITH IALLOT>1');
    ErrorValues.Add('MUST HAVE A NEGATIVE FARM-WELL ID');
    ErrorValues.Add('Blank instance name in the');
    ErrorValues.Add('HAS ALREADY BEEN ACTIVATED THIS STRESS PERIOD');
    ErrorValues.Add('THE LINK OF WELL IN ROW');

    // SWR
    ErrorValues.Add('DIRECT RUNOFF UNIT MUST BE >= 0');
    ErrorValues.Add('MUST BE GREATER THAN');
    ErrorValues.Add('MUST BE GREATER  THAN');
    ErrorValues.Add('ISOLVER MUST MUST BE');
    ErrorValues.Add('ISOLVER MUST BE');
    ErrorValues.Add('NOUTER MUST NOT EQUAL 0');
//    ErrorValues.Add('MUST BE LESS THAN');
    ErrorValues.Add('EXCEEDS NREACHES');
    ErrorValues.Add('LESS THAN ONE');
    ErrorValues.Add('IS LESS THAN ZERO');
//    ErrorValues.Add('LESS THAN ZERO');
    ErrorValues.Add('LESS THAN ZERO OR');
    ErrorValues.Add('NCONN LESS THAN ZERO');
    ErrorValues.Add('REACH LAYER EXCEEDS NLAY');
    ErrorValues.Add('REACH ROW EXCEEDS NROW');
    ErrorValues.Add('REACH COL EXCEEDS NCOL');
    ErrorValues.Add('COULD NOT PARSE NTABRCH');
    ErrorValues.Add('CONFINED AQUIFERS CANNOT BE SIMULATED WITH SWR');
    ErrorValues.Add('FLOW PACKAGE SPECIFIED INCONSISTENT WITH SWR');
    ErrorValues.Add('MUST BE EQUAL TO');
    ErrorValues.Add('MUST NOT EXCEED');
    ErrorValues.Add('SHOULD BE SPECIFIED AS');
    ErrorValues.Add('POSITIVE REACH RAIN VALUE REQUIRED');
    ErrorValues.Add('POSITIVE REACH EVAP VALUE REQUIRED');
    ErrorValues.Add('ISTRRCH.LT.1 OR .GT.NREACHES');
    ErrorValues.Add('ISTRNUM.LT.1 OR .GT.REACH(ISTRRCH)%NSTRUCT');
    ErrorValues.Add('SIMULATED SWR1 STAGE STRCRIT ONLY FOR');
    ErrorValues.Add('STAGE CANNOT BE SPECIFIED USING ANOTHER');
    ErrorValues.Add('INVALID SOURCE REACH DEFINING STAGE FOR');
    ErrorValues.Add('INVALID STRUCTURE CONNECTION');
    ErrorValues.Add('ASSYMETRY IN REACH CONNECTIONS');
    ErrorValues.Add('COULD NOT ALLOCATE');
    ErrorValues.Add('MULTIPLE DW CONNECTIONS TO THE SAME DW RCHGRP');
    ErrorValues.Add('ROUTING APPROACHES FOR AT LEAST');
    ErrorValues.Add('KRCH MUST BE SET TO 1');
    ErrorValues.Add('The GMG solver is not included in this version of MODFLOW');
    ErrorValues.Add('GMG ASSEMBLY ERROR IN SUBROUTINE GMG1AP');

    // MODFLOW 6
    ErrorValues.Add('Error.  GNC is implicit');
    ErrorValues.Add('GHOST NODE ERROR');
    ErrorValues.Add('ERROR. UNKNOWN GNC OPTION');
    ErrorValues.Add('ERROR. UNKNOWN GNC DIMENSION');
    ErrorValues.Add('ERROR.  REQUIRED DIMENSIONS BLOCK NOT FOUND.');
    ErrorValues.Add('Errors encountered in GNC input file');
    ErrorValues.Add('ERROR.  REQUIRED GNCDATA BLOCK NOT FOUND.');
    ErrorValues.Add('ERROR.  TWO MODELS ARE CONNECTED');
    ErrorValues.Add('Error.  GWF-GWF requires that ANGLDEGX be');
    ErrorValues.Add('Error.  GWF-GWF requires that CDIST be');
    ErrorValues.Add('error in gwf_gwf_cq');
    ErrorValues.Add('UNKNOWN CELL AVERAGING METHOD');
    ErrorValues.Add('GNC6 KEYWORD MUST BE FOLLOWED BY');
    ErrorValues.Add('NO GNC6 FILE SPECIFIED');
    ErrorValues.Add('MVR6 KEYWORD MUST BE FOLLOWED BY');
    ErrorValues.Add('NO MVR6 FILE SPECIFIED');
    ErrorValues.Add('OBS8 KEYWORD MUST BE FOLLOWED BY');
    ErrorValues.Add('ERROR. UNKNOWN GWF EXCHANGE OPTION');
    ErrorValues.Add('Errors encountered in exchange input file');
    ErrorValues.Add('ERROR.  REQUIRED EXCHANGEDATA BLOCK NOT FOUND');
    ErrorValues.Add('GNC IS EXPLICIT, BUT GWF EXCHANGE HAS ACTIVE NEWTON');
    ErrorValues.Add('NUMBER OF EXCHANGES DOES NOT MATCH NUMBER OF GNCs');
    ErrorValues.Add('Error: Unrecognized observation type');
    ErrorValues.Add('NOT CONSISTENT WITH GNC NODES');
    ErrorValues.Add('Cell is outside active grid domain');
    ErrorValues.Add('node number < 0 or > model nodes');
    ErrorValues.Add('is invalid in package');
    ErrorValues.Add('Error: Unrecognized observation type');
    ErrorValues.Add('ERROR. UNKNOWN EXCHANGE OPTION');
    ErrorValues.Add('ERROR. UNKNOWN DIMENSION');
    ErrorValues.Add('ERROR. UNKNOWN CIRCULAR GEOMETRY ATTRIBUTE');
    ErrorValues.Add('ERROR. UNKNOWN RECTANGULAR CHANNEL GEOMETRY ATTRIBUTE');
    ErrorValues.Add('ERROR. UNKNOWN RECTANGULAR GEOMETRY ATTRIBUTE');
    ErrorValues.Add('ERROR. UNKNOWN GWF NAMEFILE');
    ErrorValues.Add('Invalid package type');
    ErrorValues.Add('Cannot create package.  Package name');
    ErrorValues.Add('TDIS6 ftype not specified in name file');
    ErrorValues.Add('IMS6 ftype not specified in name file');
    ErrorValues.Add('ERROR. INITIAL CONDITIONS (IC6) PACKAGE NOT SPECIFIED');
    ErrorValues.Add('ERROR. DISCRETIZATION');
    ErrorValues.Add('ERROR.  NODE PROPERTY FLOW (NPF6) PACKAGE NOT SPECIFIED');
    ErrorValues.Add('ERROR. REQUIRED PACKAGE(S) NOT SPECIFIE');
    ErrorValues.Add('DUPLICATE ENTRIES FOR FTYPE');
    ErrorValues.Add('ERROR OCCURRED WHILE READING FILE');
    ErrorValues.Add('Error.  Cell is already a constant head');
    ErrorValues.Add('IS LESS THAN CELL BOTTOM');
    ErrorValues.Add('ERROR. UNKNOWN DIS OPTION');
    ErrorValues.Add('ERROR. UNKNOWN DIS DIMENSION');
    ErrorValues.Add('ERROR.  NLAY WAS NOT SPECIFIED OR WAS SPECIFIED INCORRECTLY');
    ErrorValues.Add('ERROR.  NROW WAS NOT SPECIFIED OR WAS SPECIFIED INCORRECTLY');
    ErrorValues.Add('ERROR.  NCOL WAS NOT SPECIFIED OR WAS SPECIFIED INCORRECTLY');
    ErrorValues.Add('ERROR. UNKNOWN GRIDDATA TAG');
    ErrorValues.Add('ERROR.  REQUIRED GRIDDATA BLOCK NOT FOUND');
    ErrorValues.Add('ERROR.  REQUIRED INPUT WAS NOT SPECIFIED');
    ErrorValues.Add('ERROR. CELL');
    ErrorValues.Add('Nodenumber less than 1 or greater than nodes');
    ErrorValues.Add('Error in structured-grid cell indices');
    ErrorValues.Add('Layer less than one or greater than nlay');
    ErrorValues.Add('Row less than one or greater than nrow');
    ErrorValues.Add('Column less than one or greater than ncol');
    ErrorValues.Add('Layer number in list is outside of the grid');
    ErrorValues.Add('Row number in list is outside of the grid');
    ErrorValues.Add('Column number in list is outside of the grid');
    ErrorValues.Add('Node number in list is outside of the grid');
    ErrorValues.Add('Error converting in file');
    ErrorValues.Add('Cell number cannot be determined in');
    ErrorValues.Add('ERROR.  INVALID LAYER NUMBER');
    ErrorValues.Add('ERROR. MAXBOUND DIMENSION IS TOO SMALL');
    ErrorValues.Add('ERROR.  INVALID NODE NUMBER');
    ErrorValues.Add('ERROR.  NODES WAS NOT SPECIFIED OR WAS SPECIFIED INCORRECTLY');
    ErrorValues.Add('ERROR.  NJA WAS NOT SPECIFIED OR WAS SPECIFIED INCORRECTLY');
    ErrorValues.Add('ERROR. VERTEX NUMBER NOT CONSECUTIVE.');
    ErrorValues.Add('ERROR.  REQUIRED VERTICES BLOCK NOT FOUND');
    ErrorValues.Add('ERROR. CELL NUMBER NOT CONSECUTIVE.');
    ErrorValues.Add('ERROR.  REQUIRED CELL2D BLOCK NOT FOUND.');
    ErrorValues.Add('ERROR.  NCPL WAS NOT SPECIFIED OR WAS SPECIFIED INCORRECTLY');
    ErrorValues.Add('ERROR.  NVERT WAS NOT SPECIFIED OR WAS SPECIFIED INCORRECTLY');
    ErrorValues.Add('ERROR. CELL2D AREA LESS THAN ZERO FOR CELL');
    ErrorValues.Add('CELL VERTICES MUST BE LISTED IN CLOCKWISE ORDER');
    ErrorValues.Add('Error in disv grid cell indices');
    ErrorValues.Add('Node number less than one or greater than ncpl');
    ErrorValues.Add('Cell2d number in list is outside of the grid');
    ErrorValues.Add('READASARRAYS option is not compatible with');
    ErrorValues.Add('When READASARRAYS option is used for the selected');
    ErrorValues.Add('Error: In EVT, NSEG must be > 0 but is specified as');
    ErrorValues.Add('In the EVT package, NSEG cannot be greater than 1');
    ErrorValues.Add('ERROR. UNKNOWN');
    ErrorValues.Add('ERROR.  MAXBOUND MUST BE AN INTEGER GREATER THAN ZERO');
    ErrorValues.Add('Error.  Looking for BEGIN PERIOD');
    ErrorValues.Add('Error in EVT input: Definition of PXDP or PETM is incomplete');
    ErrorValues.Add('ERROR. IEVT IS NOT FIRST VARIABLE IN');
    ErrorValues.Add('Error.  IEVT must be read at least once');
    ErrorValues.Add('Error in EVT input: PXDP cannot be specified when NSEG < 2');
    ErrorValues.Add('Error in EVT: Number of PXDP arrays exceeds NSEG-1');
    ErrorValues.Add('Error in EVT input: PETM cannot be specified when NSEG < 2');
    ErrorValues.Add('Error in EVT: Number of PETM arrays exceeds NSEG-1');
    ErrorValues.Add('ERROR. LOOKING FOR VALID VARIABLE NAME.  FOUND');
    ErrorValues.Add('Error in EVT input: Definition of PXDP or PETM is incomplete');
    ErrorValues.Add('ERROR. UNKNOWN HFB OPTION');
    ErrorValues.Add('ERROR. UNKNOWN HFB DIMENSION');
    ErrorValues.Add('ERROR.  MAXHFB MUST BE SPECIFIED WITH VALUE GREATER THAN ZERO');
    ErrorValues.Add('MAXHFB not large enough');
    ErrorValues.Add('Errors encountered in HFB input file');
    ErrorValues.Add('Error.  HFB no.');
    ErrorValues.Add('ERROR. UNKNOWN IC OPTION');
    ErrorValues.Add('ERROR. lakeno MUST BE > 0 and <=');
    ErrorValues.Add('ERROR. nlakecon MUST BE >= 0 for lake');
    ErrorValues.Add('ERROR.  NO DATA SPECIFIED FOR LAKE');
    ErrorValues.Add('ERROR.  DATA FOR LAKE');
    ErrorValues.Add('ERROR.  REQUIRED PACKAGEDATA BLOCK NOT FOUND');
    ErrorValues.Add('ERROR. iconn FOR LAKE');
    ErrorValues.Add('ERROR. INVALID cellid FOR LAKE');
    ErrorValues.Add('ERROR. UNKNOWN ctype FOR LAKE');
    ErrorValues.Add('ERROR. bedleak FOR LAKE');
    ErrorValues.Add('ERROR. connection length (connlength) FOR LAKE ');
    ErrorValues.Add('ERROR. cell width (connwidth) FOR LAKE');
    ErrorValues.Add('ERROR.  REQUIRED CONNECTIONDATA BLOCK NOT FOUND');
    ErrorValues.Add('ERROR. nlakeconn FOR LAKE');
    ErrorValues.Add('ERROR. EMBEDDED LAKE');
    ErrorValues.Add('ERROR. telev FOR LAKE');
    ErrorValues.Add('ERROR. belev FOR LAKE');
    ErrorValues.Add('ERROR.  NO DATA SPECIFIED FOR LAKE');
    ErrorValues.Add('TAB6 keyword must be followed by "FILEIN"');
    ErrorValues.Add('ERROR. LAKE TABLE ENTRY for LAKE');
    ErrorValues.Add('ERROR.  TABLE DATA ARE SPECIFIED');
    ErrorValues.Add('ERROR.  TABLE DATA FOR LAKE');
    ErrorValues.Add('ERROR.  REQUIRED TABLES BLOCK NOT FOUND');
    ErrorValues.Add('ERROR. LAKE TABLE NROW MUST BE > 0');
    ErrorValues.Add('ERROR. LAKE TABLE NCOL MUST BE >= ');
    ErrorValues.Add('ERROR. NROW NOT SPECIFIED IN THE LAKE TABLE DIMENSIONS BLOCK');
    ErrorValues.Add('ERROR. NCOL NOT SPECIFIED IN THE LAKE TABLE DIMENSIONS BLOCK');
    ErrorValues.Add('ERROR.  REQUIRED TABLE BLOCK NOT FOUND');
    ErrorValues.Add('ERROR. NROW SET TO');
    ErrorValues.Add('ERROR. TABLE STAGE ENTRY');
    ErrorValues.Add('ERROR. TABLE VOLUME ENTRY');
    ErrorValues.Add('ERROR. TABLE SURFACE AREA ENTRY');
    ErrorValues.Add('ERROR. TABLE EXCHANGE AREA ENTRY');
    ErrorValues.Add('ERROR. outletno MUST BE > 0 and <=');
    ErrorValues.Add('ERROR. lakein FOR OUTLET');
    ErrorValues.Add('ERROR. lakeout FOR OUTLET');
    ErrorValues.Add('ERROR. UNKNOWN couttype FOR OUTLET');
    ErrorValues.Add('ERROR.  NO DATA SPECIFIED FOR OUTLET');
    ErrorValues.Add('ERROR.  DATA FOR OUTLET');
    ErrorValues.Add('ERROR.  AN OUTLETS BLOCK SHOULD NOT BE');
    ErrorValues.Add('ERROR.  REQUIRED OUTLETS BLOCK NOT FOUND');
    ErrorValues.Add('ERROR:  NLAKES WAS NOT SPECIFIED OR WAS SPECIFIED INCORRECTLY');
    ErrorValues.Add('ERROR. LAKENO');
    ErrorValues.Add('ERROR. IOUTLET');
    ErrorValues.Add('****ERROR');
    ErrorValues.Add('OPTIONAL STAGE KEYWORD MUST BE FOLLOWED BY FILEOUT');
    ErrorValues.Add('OPTIONAL BUDGET KEYWORD MUST BE FOLLOWED BY FILEOUT');
    ErrorValues.Add('Error: Unrecognized observation type');
    ErrorValues.Add('Error: Boundary');
    ErrorValues.Add('Error: Boundary name not provided for observation');
    ErrorValues.Add('Error: Invalid node number in OBS input');
    ErrorValues.Add('Programming error in lak_rp_obs');
    ErrorValues.Add('must be assigned to a lake with a unique boundname');
    ErrorValues.Add('is invalid in package');
    ErrorValues.Add('outlet must be > 0 and <=');
    ErrorValues.Add('lake connection number must be > 0 and <=');
    ErrorValues.Add('lake must be > 0 and <=');
    ErrorValues.Add('ERROR. IMAW MUST BE > 0 and <=');
    ErrorValues.Add('ERROR. RADIUS FOR WELL');
    ErrorValues.Add('ERROR. NGWFNODES FOR WELL');