unit ModflowIdentifiersUnit;

interface

uses
  SysUtils, Classes, ErrorMessages, JclAnsiStrings;

var
  PackageIdentifiers: TAnsiStringList;
  NumberPackageIdentifiers: TAnsiStringList;
  ObsIdentifiers: TAnsiStringList;
  BoundaryIdentifiers: TAnsiStringList;
  NumberBoundaryIdentifiers: TAnsiStringList;
//  KeyWords: TAnsiStringList;
  NonIdentifiers: TAnsiStringList;
//  ShortBoundaryIdentifiers: TAnsiStringList;

const
  StressPeriodID1 = 'STRESS PERIOD NO. ';
  StressPeriodID2 = 'LENGTH =';
  TransportStep = 'TRANSPORT STEP NO.';
  StartNewTimeStep = 'SOLVING FOR HEAD';
  StrINNERITERATIONSUMM = 'INNER ITERATION SUMMARY';
  StrTimeseriesControll = 'Time-series controlled values';
  IterationID1 = 'ITERATIONS FOR TIME STEP';
  IterationID2 = 'IN STRESS PERIOD';
  ArrayID1 = ' IN LAYER ';
  ArrayID2 = ' AT END OF TIME STEP ';
  ArrayID3 = ' FOR CROSS SECTION AT END OF TIME STEP';
  ArrayID4 = ' AT END OF TRANSPORT STEP '; // SEAWAT

  BudgetID = 'VOLUMETRIC BUDGET';
  SwiBudgetID = 'VOLUMETRIC SWI ZONE BUDGET';
  SwrBudgetID = 'VOLUMETRIC SURFACE WATER BUDGET';
  SwrBudgetDiscrepancy = 'DISCREPANCY BETWEEN MODFLOW AND SWR1 AQUIFER-REACH';
  TimeSummary = 'TIME SUMMARY';
  EndModel = 'Run end date and time';
  StrParameterName = 'PARAMETER NAME:';
  StrINSTANCE = 'INSTANCE:';
  StrParameter = 'Parameter:';
  StrINSTANCE2 = 'Instance:';
  StrCLASSIFICATIONCOU = 'CLASSIFICATION & COUNT OF STREAM SEGMENTS';
  StrRECHARGE = 'RECHARGE =';
  StrCfpm1Results = 'CFPM1 RESULTS';
  StrPipeBudget = 'BUDGET OF THE PIPE SYSTEM';

  // MODFLOW 6
  BudgetIDMf6 ='VOLUME BUDGET';

  StressPeriodMf6ID1 = 'STRESS PERIOD';
  StressPeriodMf6ID2A = 'IS TRANSIENT';
  StressPeriodMf6ID2B = 'IS STEADY-STATE';
  StrOUTPUTCONTROLFORS = 'OUTPUT CONTROL FOR STRESS PERIOD';
  Mf6StartTimeStep = 'start timestep kper="';
  Mf6Kstp = '" kstp="';


const
  StrHEADANDDRAWDOWNOB = 'HEAD AND DRAWDOWN OBSERVATIONS';
  StrMODELTIMEUNIT = 'MODEL TIME UNIT';
  StrGROUNDSURFACE = 'GROUND SURFACE';


implementation

resourcestring
  StrREUSING = 'REUSING ';

Procedure InitializePackageIdentifiers;
begin
  NumberPackageIdentifiers := TAnsiStringList.Create;
  NumberPackageIdentifiers.Add('0IBS -- INTERBED STORAGE PACKAGE');

  PackageIdentifiers := TAnsiStringList.Create;
  PackageIdentifiers.Add('BAS -- BASIC PACKAGE');
  PackageIdentifiers.Add('BAS6 -- BASIC PACKAGE, VERSION');
  PackageIdentifiers.Add('BCF -- BLOCK-CENTERED FLOW PACKAGE');
  PackageIdentifiers.Add('BCF6 -- BLOCK-CENTERED FLOW PACKAGE');
  PackageIdentifiers.Add('CHD -- TIME-VARIANT SPECIFIED-HEAD OPTION');
  PackageIdentifiers.Add('CHD6 -- TIME-VARIANT SPECIFIED-HEAD PACKAGE');  // SEAWAT
  PackageIdentifiers.Add('DE4 -- D4 DIRECT SOLUTION PACKAGE');
  PackageIdentifiers.Add('DRN -- DRAIN PACKAGE');
  PackageIdentifiers.Add('DRT7 -- DRAIN RETURN PACKAGE');
  PackageIdentifiers.Add('ETS7 -- EVAPOTRANSPIRATION SEGMENTS PACKAGE');
  PackageIdentifiers.Add('EVT -- EVAPOTRANSPIRATION PACKAGE');
  PackageIdentifiers.Add('FHB1 -- SPECIFIED FLOW PACKAGE');
  PackageIdentifiers.Add('GAGING STATION');
  PackageIdentifiers.Add('GHB -- GENERAL-HEAD BOUNDARY PACKAGE');
  PackageIdentifiers.Add('GMG -- PCG GEOMETRIC MULTI-GRID SOLUTION PACKAGE');
  PackageIdentifiers.Add('HFB -- HORIZONTAL-FLOW BARRIER PACKAGE');
  PackageIdentifiers.Add('HUF2 -- HYDROGEOLOGIC-UNIT FLOW PACKAGE');
  PackageIdentifiers.Add('HYD -- HYDROGRAPH DATA');
  PackageIdentifiers.Add('IBS -- INTERBED STORAGE PACKAGE');
  PackageIdentifiers.Add('LAK7 -- LAKE PACKAGE');
  PackageIdentifiers.Add('LPF -- LAYER-PROPERTY FLOW PACKAGE');
  PackageIdentifiers.Add('MNW1 -- MULTI-NODE WELL 1 PACKAGE');
  PackageIdentifiers.Add('MNW2 -- MULTI-NODE WELL 2 PACKAGE');
  PackageIdentifiers.Add('MNWI Package input');
  PackageIdentifiers.Add('OBS2BAS7 -- HEAD OBSERVATIONS');
  PackageIdentifiers.Add('OBS2CHD7 -- CONSTANT-HEAD BOUNDARY FLOW OBSERVATIONS');
  PackageIdentifiers.Add('OBS2DRN7 -- OBSERVATION PROCESS (DRAIN FLOW OBSERVATIONS)');
  PackageIdentifiers.Add('OBS2GHB7 -- OBSERVATION PROCESS (GHB FLOW OBSERVATIONS)');
  PackageIdentifiers.Add('OBS2RIV7 -- OBSERVATION PROCESS (RIVER FLOW OBSERVATIONS)');
  PackageIdentifiers.Add('OBS2STR7 -- OBSERVATION PROCESS (STREAMFLOW OBSERVATIONS)');
  PackageIdentifiers.Add('PCG -- CONJUGATE-GRADIENT SOLUTION PACKAGE');
  PackageIdentifiers.Add('PCG2 -- CONJUGATE GRADIENT SOLUTION PACKAGE'); // SEAWAT
  PackageIdentifiers.Add('RCH -- RECHARGE PACKAGE');
  PackageIdentifiers.Add('RES7 -- RESERVOIR PACKAGE');
  PackageIdentifiers.Add('RIV -- RIVER PACKAGE');
  PackageIdentifiers.Add('SFR7 -- STREAMFLOW ROUTING PACKAGE');
  PackageIdentifiers.Add('SIP -- STRONGLY-IMPLICIT PROCEDURE SOLUTION PACKAGE');
  PackageIdentifiers.Add('STR -- STREAM PACKAGE');
  PackageIdentifiers.Add('SUB7 -- SUBSIDENCE PACKAGE');
  PackageIdentifiers.Add('SWT -- SUBSIDENCE FOR WATER-TABLE PACKAGE');
  PackageIdentifiers.Add('UZF1 -- UNSATURATED FLOW PACKAGE');
  PackageIdentifiers.Add('WEL -- WELL PACKAGE');
  PackageIdentifiers.Add('MODFLOW-LGR');
  PackageIdentifiers.Add('MODFLOW-NWT');
  PackageIdentifiers.Add('MODFLOW-2005');
  PackageIdentifiers.Add('FMP2 -- FARM PROCESS');
  PackageIdentifiers.Add('SWI2 -- SWI PACKAGE');
  PackageIdentifiers.Add('SWR -- SURFACE-WATER ROUTING PACKAGE');
  PackageIdentifiers.Add('NWT1 -- Newton Solver');
  PackageIdentifiers.Add('UPW1 -- UPSTREAM WEIGHTING FLOW PACKAGE');
  PackageIdentifiers.Add('RIP-ET -- RIPARIAN PACKAGE');
  PackageIdentifiers.Add('CFP1AR READING FROM UNIT');
  PackageIdentifiers.Add('AG -- AG PACKAGE FOR NWT VERSION');
  PackageIdentifiers.Add('PROCESSING TIME SERIES');
  PackageIdentifiers.Add('Stream Gages:');
  PackageIdentifiers.Add('MEMORY MANAGER TOTAL STORAGE');

//// MODFLOW 6
  PackageIdentifiers.Add('DIS -- STRUCTURED GRID DISCRETIZATION PACKAGE');
  PackageIdentifiers.Add('NPF -- NODE PROPERTY FLOW PACKAGE');
  PackageIdentifiers.Add('WEL   -- WEL PACKAGE');
  PackageIdentifiers.Add('DRN   -- DRN PACKAGE');
  PackageIdentifiers.Add('RCH   -- RCH PACKAGE');
  PackageIdentifiers.Add('CHD   -- CHD PACKAGE');
  PackageIdentifiers.Add('IC -- INITIAL CONDITIONS PACKAGE');
  PackageIdentifiers.Add('IC -- Initial Conditions Package');
  PackageIdentifiers.Add('EVT   -- EVT PACKAGE');
  PackageIdentifiers.Add('STO -- STORAGE PACKAGE');
  PackageIdentifiers.Add('GHB   -- GHB PACKAGE');
  PackageIdentifiers.Add('CSUB -- COMPACTION PACKAGE');
  PackageIdentifiers.Add('DISU -- UNSTRUCTURED GRID DISCRETIZATION PACKAGE');
  PackageIdentifiers.Add('DISV -- VERTEX GRID DISCRETIZATION PACKAGE');
  PackageIdentifiers.Add('VSC -- Viscosity Package');
  PackageIdentifiers.Add('BUY -- Buoyancy Package');
  PackageIdentifiers.Add('DSP-- DISPERSION PACKAGE');
  PackageIdentifiers.Add('FMI -- FLOW MODEL INTERFACE');
  PackageIdentifiers.Add('ADV-- ADVECTION PACKAGE');
  PackageIdentifiers.Add('MST -- MOBILE STORAGE AND TRANSFER PACKAGE');
  PackageIdentifiers.Add('SSM -- SOURCE-SINK MIXING PACKAGE');
  PackageIdentifiers.Add('CNC   -- CNC PACKAGE');
  PackageIdentifiers.Add('IST   -- IMMOBILE DOMAIN PACKAGE');
  PackageIdentifiers.Add('SRC   -- SRC PACKAGE');
  PackageIdentifiers.Add('LKT   -- LKT PACKAGE');
  PackageIdentifiers.Add('SFT   -- SFT PACKAGE');
  PackageIdentifiers.Add('MWT   -- MWT PACKAGE');
  PackageIdentifiers.Add('UZT   -- UZT PACKAGE');
  PackageIdentifiers.Add('APT -- ADVANCED PACKAGE TRANSPORT');
  PackageIdentifiers.Add('MVT -- MOVER TRANSPORT PACKAGE');
  PackageIdentifiers.Add('ATS -- ADAPTIVE TIME STEP PACKAGE');
  PackageIdentifiers.Add('TVK -- TIME-VARYING K PACKAGE');
  PackageIdentifiers.Add('TVS -- TIME-VARYING S PACKAGE');
  PackageIdentifiers.Add('READING SIMULATION MODEL');
  PackageIdentifiers.Add('HFB -- HORIZONTAL FLOW BARRIER PACKAGE');
  PackageIdentifiers.Add('CND-- THERMAL CONDUCTION AND DISPERSION PACKAGE');
  PackageIdentifiers.Add('UZE   -- UZE PACKAGE');
  PackageIdentifiers.Add('EST -- ENERGY STORAGE AND TRANSFER PACKAGE');
  PackageIdentifiers.Add('ESL   -- ESL PACKAGE');
  PackageIdentifiers.Add('MIP -- MODEL INPUT PACKAGE');
  PackageIdentifiers.Add('PRP -- PARTICLE RELEASE POINT PACKAGE');
  PackageIdentifiers.Add('PRP   -- PRP PACKAGE');
  PackageIdentifiers.Add('IDENTIFYING FLOW TERMS IN');
//  PackageIdentifiers.Add('StrCLASSIFICATIONCOU');
//  PackageIdentifiers.Add('StrCLASSIFICATIONCOU');
//  PackageIdentifiers.Add('StrCLASSIFICATIONCOU');
//  PackageIdentifiers.Add('StrCLASSIFICATIONCOU');
//  PackageIdentifiers.Add('StrCLASSIFICATIONCOU');
//  PackageIdentifiers.Add('StrCLASSIFICATIONCOU');

  PackageIdentifiers.Add('READING WATER MOVERS ');

//  PackageIdentifiers.Add('CALLS TO NUMERICAL SOLUTION IN TIME STEP');
//  PackageIdentifiers.Add('INFORMATION ON VARIABLES STORED IN THE MEMORY MANAGER');
//  PackageIdentifiers.Add('PROCESSING GWF EXCHANGE OPTIONS');
//  PackageIdentifiers.Add('PROCESSING EXCHANGE DIMENSIONS');
//  PackageIdentifiers.Add('PROCESSING EXCHANGEDATA');
//  PackageIdentifiers.Add('PROCESSING GNC OPTIONS');
//  PackageIdentifiers.Add('PROCESSING GNC DIMENSIONS');
//  PackageIdentifiers.Add('PROCESSING GNCDATA');
  PackageIdentifiers.Add('PROCESSING OC OPTIONS');
  PackageIdentifiers.Add('PROCESSING SFR PACKAGEDATA');
  PackageIdentifiers.Add('PROCESSING SFR CONNECTIONDATA');
  PackageIdentifiers.Add('SFR STATIC REACH DATA');
  PackageIdentifiers.Add('SFR REACH CONNECTION DATA');
  PackageIdentifiers.Add('SFR DOWNSTREAM CONNECTIONS');
  PackageIdentifiers.Add('SFR UPSTREAM CONNECTIONS');
  PackageIdentifiers.Add('SFR GEOMETRY DATA');
  PackageIdentifiers.Add('PROCESSING UZF CELLS PACKAGEDATA');
  PackageIdentifiers.Add('INTERBED STRAIN SUMMARY');
  PackageIdentifiers.Add('COARSE-GRAINED STRAIN SUMMARY');

//  PackageIdentifiers.Add('DIS -- STRUCTURED GRID DISCRETIZATION PACKAGE');
//  PackageIdentifiers.Add('NPF -- NODE PROPERTY FLOW PACKAGE');
//  PackageIdentifiers.Add('WEL   -- WEL PACKAGE');
//  PackageIdentifiers.Add('DRN   -- DRN PACKAGE');
//  PackageIdentifiers.Add('RCH   -- RCH PACKAGE');
//  PackageIdentifiers.Add('CHD   -- CHD PACKAGE');
//  PackageIdentifiers.Add('IC -- INITIAL CONDITIONS PACKAGE');
//  PackageIdentifiers.Add('BEGIN READING OUTPUT CONTROL FOR STRESS PERIOD');
//  PackageIdentifiers.Add('WEL NO.');
//  PackageIdentifiers.Add('DRN NO.');
//  PackageIdentifiers.Add('CHD NO.');
//  PackageIdentifiers.Add('REUSING');
//  PackageIdentifiers.Add('EVT   -- EVT PACKAGE');
//  PackageIdentifiers.Add('STO -- STORAGE PACKAGE');
//  PackageIdentifiers.Add('RIV NO.');
//  PackageIdentifiers.Add('GHB NO.');
//  PackageIdentifiers.Add('UPDATING STORAGE VALUES');
//  PackageIdentifiers.Add('GHB   -- GHB PACKAGE');
  PackageIdentifiers.Add('RIV   -- RIV PACKAGE');
  PackageIdentifiers.Add('The observation utility is active for');
  PackageIdentifiers.Add('SFR   -- SFR PACKAGE');
  PackageIdentifiers.Add('LAK   -- LAK PACKAGE');
  PackageIdentifiers.Add('MVR -- WATER MOVER PACKAGE');
  PackageIdentifiers.Add('INTERFACE CONDUCTANCE BETWEEN LAKE AND AQUIFER CELLS');
  PackageIdentifiers.Add('MAW   -- MAW PACKAGE');
  PackageIdentifiers.Add('MULTI-AQUIFER WELL CONNECTION DATA');
  PackageIdentifiers.Add('UZF   -- UZF CELLS PACKAGE');
  PackageIdentifiers.Add('PROCESSING SFR DIVERSIONS');
  PackageIdentifiers.Add('STAGE/VOLUME RELATION');
  PackageIdentifiers.Add('IMS -- ITERATIVE MODEL SOLUTION PACKAGE');
//  PackageIdentifiers.Add('StrCLASSIFICATIONCOU');
//  PackageIdentifiers.Add('StrCLASSIFICATIONCOU');
//  PackageIdentifiers.Add('StrCLASSIFICATIONCOU');
//  PackageIdentifiers.Add('StrCLASSIFICATIONCOU');
//  PackageIdentifiers.Add('StrCLASSIFICATIONCOU');
end;


Procedure InitializeObsIdentifiers;
begin
  ObsIdentifiers:= TAnsiStringList.Create;
  ObsIdentifiers.Add(StrHEADANDDRAWDOWNOB);
  ObsIdentifiers.Add('CONSTANT HEAD FLOW OBSERVATIONS');
  ObsIdentifiers.Add('DRAIN FLOW OBSERVATIONS');
  ObsIdentifiers.Add('GHB FLOW OBSERVATIONS');
  ObsIdentifiers.Add('RIVER FLOW OBSERVATIONS');
  ObsIdentifiers.Add('STREAMFLOW OBSERVATIONS');
end;

procedure InitializeBoundaryIdentifiers;
begin
  NumberBoundaryIdentifiers := TAnsiStringList.Create;
  NumberBoundaryIdentifiers.Add('parameters');

  BoundaryIdentifiers := TAnsiStringList.Create;
  BoundaryIdentifiers.Add(AnsiString(StrREUSING));
  BoundaryIdentifiers.Add('WELL NO.  LAYER   ROW   COL   STRESS RATE');
  BoundaryIdentifiers.Add('DRAIN NO.  LAYER   ROW   COL     DRAIN EL.  CONDUCTANCE');
  BoundaryIdentifiers.Add('REACH NO.  LAYER   ROW   COL');
  BoundaryIdentifiers.Add('EVTR array defined by the following parameters:');
  BoundaryIdentifiers.Add('MULT. ARRAY:');
  BoundaryIdentifiers.Add('CSUB NO.');
//  BoundaryIdentifiers.Add(' HK ');
//  BoundaryIdentifiers.Add(' HANI ');
//  BoundaryIdentifiers.Add(' SS ');
//  BoundaryIdentifiers.Add(' SY ');
//  BoundaryIdentifiers.Add(' ETS ');
//  BoundaryIdentifiers.Add(' EVT ');
//  BoundaryIdentifiers.Add(' RCH ');
  BoundaryIdentifiers.Add('BOUND. NO. LAYER   ROW   COL     STAGE      CONDUCTANCE');
  BoundaryIdentifiers.Add('LAYER   ROW    COL    SEGMENT   REACH');
  BoundaryIdentifiers.Add('TABULAR INFLOWS WERE READ');
  BoundaryIdentifiers.Add(StrOUTPUTCONTROLFORS);
  BoundaryIdentifiers.Add('CHD NO.   LAYER   ROW   COL    START HEAD        END HEAD');
  BoundaryIdentifiers.Add('STREAM NETWORK DESCRIPTION');
  BoundaryIdentifiers.Add('USING INFILTRATION RATE FROM PREVIOUS STRESS ');
  BoundaryIdentifiers.Add('USING ET RATE FROM PREVIOUS STRESS');
  BoundaryIdentifiers.Add('USING ET EXTINCTION DEPTH FROM PREVIOUS');
  BoundaryIdentifiers.Add('USING EXTINCTION WATER CONTENT FROM PREVIOUS');
  BoundaryIdentifiers.Add('INITIAL LAKE STAGE:  LAKE    STAGE    SS MIN    SS MAX');
  BoundaryIdentifiers.Add('INITIAL LAKE CONCENTRATIONS:  LAKE   CONCENTRATION');
  BoundaryIdentifiers.Add('EVAPOTRANS. RATE (ETSR)');
  BoundaryIdentifiers.Add('EXTINCT. DEP. PROPORTION');
  BoundaryIdentifiers.Add('ET RATE PROPORTION');
  BoundaryIdentifiers.Add('ET LAYER INDEX');
  BoundaryIdentifiers.Add('ET SURFACE');
  BoundaryIdentifiers.Add('EVAPOTRANSPIRATION RATE');
  BoundaryIdentifiers.Add('EXTINCTION DEPTH');
  BoundaryIdentifiers.Add('RECHARGE LAYER INDEX');
  BoundaryIdentifiers.Add('RECHARGE');
  BoundaryIdentifiers.Add('DRAIN NO.  LAYER   ROW   COL     DRAIN EL.  STRESS FACTOR');
  BoundaryIdentifiers.Add('DRAIN NO.  LAYER   ROW   COL   LAYER   ROW   COL    PROP.');
  BoundaryIdentifiers.Add('DRAIN NO.  LAYER   ROW   COL     DRAIN EL.  CONDUCTANCE');
//  BoundaryIdentifiers.Add('WELLID             NNODES    LOSSTYPE');
  BoundaryIdentifiers.Add('    No.   Lay   Row   Col    Stress   QW param');
  BoundaryIdentifiers.Add('TOP ELEVATN');
  BoundaryIdentifiers.Add('THICKNESS:');
  BoundaryIdentifiers.Add('PARAMETER NAME');
  BoundaryIdentifiers.Add('INTERPRETATION OF UNIT FLAGS:');
  BoundaryIdentifiers.Add('HYD. COND. ALONG ROWS');
  BoundaryIdentifiers.Add('HORIZ. ANI. (COL./ROW)');
  BoundaryIdentifiers.Add('VERTICAL HYD. COND.');
  BoundaryIdentifiers.Add('TOP ELEVATION OF LAYER');
  BoundaryIdentifiers.Add('TOP ELEV. OF');
  BoundaryIdentifiers.Add('MODEL LAYER BOTTOM EL.');
  BoundaryIdentifiers.Add('STRESS PERIOD     LENGTH       TIME STEPS     MULTIPLIER FOR DELT    SS FLAG');
  BoundaryIdentifiers.Add('BOUNDARY ARRAY');
  BoundaryIdentifiers.Add('INITIAL HEAD');
  BoundaryIdentifiers.Add('LAYER FLAGS:');
  BoundaryIdentifiers.Add('SPECIFIC YIELD');
  BoundaryIdentifiers.Add('LAYER    ROW    COL   SEGMENT   REACH     LENGTH');
  BoundaryIdentifiers.Add('AREAL EXTENT OF UZ FLOW');
  BoundaryIdentifiers.Add('ROUTING OVERLAND RUNOFF');
  BoundaryIdentifiers.Add('SATURATED VERTICAL K');
  BoundaryIdentifiers.Add('LAND SURFACE VERTICAL K');
  BoundaryIdentifiers.Add('RESIDUAL WATER CONTENT');
  BoundaryIdentifiers.Add('BROOKS-COREY EPSILON');
  BoundaryIdentifiers.Add('SATURATED WATER CONTENT');
  BoundaryIdentifiers.Add('SELECTED MODEL CELLS ARE:');
  BoundaryIdentifiers.Add('SEGMENT    SEG.     INFLOW   OVERLAND   STREAM');
  BoundaryIdentifiers.Add('SEGMENT     BED HYD. COND.      BED THICKNESS');
  BoundaryIdentifiers.Add('EIGHT POINT CROSS-SECTION DATA');
  BoundaryIdentifiers.Add('STREAMFLOW RELATION WITH DEPTH IS BASED ON EQUATION');
  BoundaryIdentifiers.Add('STREAMFLOW RELATION WITH DEPTH AND WIDTH IS BASED');
  BoundaryIdentifiers.Add('AREAL INFILTRATION RATE');
  BoundaryIdentifiers.Add('ET RATE');
  BoundaryIdentifiers.Add('ET EXTINCTION DEPTH');
  BoundaryIdentifiers.Add('EXTINCTION WATER CONTENT');
  BoundaryIdentifiers.Add('MAXIMUM HEAD CHANGE FOR EACH ITERATION');
  BoundaryIdentifiers.Add('WELLS   PERIOD');
  BoundaryIdentifiers.Add('HEAD DEP BOUNDS   PERIOD');
  BoundaryIdentifiers.Add('UNSATURATED ZONE PACKAGE VOLUMETRIC BUDGET');
  BoundaryIdentifiers.Add('STREAM LISTING     PERIOD');
  BoundaryIdentifiers.Add('AT ALL NO-FLOW NODES');
  BoundaryIdentifiers.Add('ZONE ARRAY:');
  BoundaryIdentifiers.Add('INTERPRETATION OF LAYER FLAGS:');
  BoundaryIdentifiers.Add('QUASI3D VERT. HYD. COND.');
  BoundaryIdentifiers.Add('HEAD IN LAYER');
  BoundaryIdentifiers.Add('HEAD AT CELLS THAT CONVERT TO DRY');
  BoundaryIdentifiers.Add('VERT HYD COND /THICKNESS');
  BoundaryIdentifiers.Add('TRANSMIS. ALONG ROWS');
  BoundaryIdentifiers.Add('BARRIER  LAYER  IROW1  ICOL1  IROW2  ICOL2    HYDCHR');
  BoundaryIdentifiers.Add('COLUMN TO ROW ANISOTROPY');
  BoundaryIdentifiers.Add('LAYER  LAYER-TYPE CODE     INTERBLOCK T');
  BoundaryIdentifiers.Add('PRIMARY STORAGE COEF');
  BoundaryIdentifiers.Add('MODEL LAYER ASSIGNMENTS');
  BoundaryIdentifiers.Add('OF DELAY BEDS:');
  BoundaryIdentifiers.Add('OF NO-DELAY BEDS:');
  BoundaryIdentifiers.Add('PRECONSOLIDATION HEAD');
  BoundaryIdentifiers.Add('ELASTIC INTERBED STORAGE');
  BoundaryIdentifiers.Add('VIRGIN INTERBED STORAGE');
  BoundaryIdentifiers.Add('STARTING COMPACTION');
  BoundaryIdentifiers.Add('MATERIAL PROPERTIES OF INTERBEDS');
  BoundaryIdentifiers.Add('DELAY STARTING HEAD');
  BoundaryIdentifiers.Add('DELAY PRECOLSOL. HEAD');
  BoundaryIdentifiers.Add('DELAY INITIAL COMPACTION');
  BoundaryIdentifiers.Add('DELAY INTERBED THICKNESS');
  BoundaryIdentifiers.Add('MATERIAL ZONE INDICES');
  BoundaryIdentifiers.Add('VOLUMETRIC BUDGET FOR SYSTEMS OF DELAY INTERBEDS');
  BoundaryIdentifiers.Add('VOLUMETRIC BUDGET FOR UNSATURATED ZONE');
  BoundaryIdentifiers.Add('DELC');
  BoundaryIdentifiers.Add('DELR');
  BoundaryIdentifiers.Add('STREAMBED PROPERTIES');
  BoundaryIdentifiers.Add('HEAD AT END OF TIME STEP');
  BoundaryIdentifiers.Add(StrMODELTIMEUNIT);
  BoundaryIdentifiers.Add('MODEL LENGTH UNIT');
  BoundaryIdentifiers.Add('MODEL LAYER ASSIGNMENTS');
  BoundaryIdentifiers.Add('GEOSTATIC STRESS');
  BoundaryIdentifiers.Add('MOIST SPECIFIC GRAVITY');
  BoundaryIdentifiers.Add('SAT. SPECIFIC GRAVITY');
  BoundaryIdentifiers.Add('SILT AND CLAY THICKNESS');
  BoundaryIdentifiers.Add('RECOMPRESSION INDEX');
  BoundaryIdentifiers.Add('COMPRESSION INDEX');
  BoundaryIdentifiers.Add('VOID RATIO');
  BoundaryIdentifiers.Add('STARTING COMPACTION');
  BoundaryIdentifiers.Add('PRECONSOL.   STRESS');
  BoundaryIdentifiers.Add('GEOSTATIC STRESS');
  BoundaryIdentifiers.Add('EFFECTIVE STRESS');
  BoundaryIdentifiers.Add('PRECONSOL STRESS');
  BoundaryIdentifiers.Add('EQUIVALENT Sske');
  BoundaryIdentifiers.Add('EQUIVALENT Sskv');
  BoundaryIdentifiers.Add('SUBSIDENCE IN LAYER');
  BoundaryIdentifiers.Add('LAYER COMPACTION IN LAYER');
  BoundaryIdentifiers.Add('CHANGE IN PCSTRS IN LAYER');
  BoundaryIdentifiers.Add('CHANGE IN G-STRS IN LAYER');
  BoundaryIdentifiers.Add('CHANGE IN EFF-ST IN LAYER');
  BoundaryIdentifiers.Add('STREAM SEGMENT               TRIBUTARY STREAM SEGMENT');
  BoundaryIdentifiers.Add('DIVERSION SEGMENT NUMBER          UPSTREAM SEGMENT NUMBER');
  BoundaryIdentifiers.Add('LAYER      ROW     COLUMN     STREAM');
  BoundaryIdentifiers.Add('SECONDARY STORAGE COEF');
  BoundaryIdentifiers.Add('WETDRY PARAMETER');
  BoundaryIdentifiers.Add('RESERVOIR LOCATION');
  BoundaryIdentifiers.Add('RESERVOIR LAND SURF ELEV');
  BoundaryIdentifiers.Add('RES. BED VERT HYD COND');
  BoundaryIdentifiers.Add('RESERVOIR BED THICKNESS');
  BoundaryIdentifiers.Add('STAGE-VOLUME TABLE FOR RESERVOIR');
  BoundaryIdentifiers.Add('RESERVOIR CONDITIONS FOR STRESS PERIOD');
  BoundaryIdentifiers.Add('MNW2 Well Conductance and Screen');
  BoundaryIdentifiers.Add('Entry LAY ROW COL         Q');
  BoundaryIdentifiers.Add('Multi-Node Rates & Average QW');
  BoundaryIdentifiers.Add('LAYER  ROW  COL IAUX');
  BoundaryIdentifiers.Add('LAKE ID ARRAY');
  BoundaryIdentifiers.Add('LAKEBED LEAKANCE ARRAY');
  BoundaryIdentifiers.Add('LOCATIONS, LAKE #');
  BoundaryIdentifiers.Add('NUMBER OF CONNECTED');
  BoundaryIdentifiers.Add('LAKE       PRECIP     EVAP');
  BoundaryIdentifiers.Add('INTERFACE CONDUCTANCES BETWEEN LAKE AND AQUIFER CELLS');
  BoundaryIdentifiers.Add('HYDROLOGIC BUDGET SUMMARIES');
  BoundaryIdentifiers.Add('CUMULATIVE HYDROLOGIC BUDGET SUMMARIES');
  BoundaryIdentifiers.Add('TIMES FOR SPECIFYING FLOWS AND HEADS');
  BoundaryIdentifiers.Add('INFORMATION ON PARAMETERS LISTED IN PARAMETER FILE');
  BoundaryIdentifiers.Add('MAXIMUM RESIDUAL FOR EACH ITERATION');
  BoundaryIdentifiers.Add('BOT. EL. OF QUASI-3D BED');
  BoundaryIdentifiers.Add('HORIZ. TO VERTICAL ANI.');
  BoundaryIdentifiers.Add('SPECIFIC STORAGE');
  BoundaryIdentifiers.Add('STORAGE COEFFICIENT');
  BoundaryIdentifiers.Add('RESERVOIR LAYER INDEX');
  BoundaryIdentifiers.Add('ELASTIC SPECIFIC STORAGE');
  BoundaryIdentifiers.Add('INELAS. SPECIFIC STORAGE');
  BoundaryIdentifiers.Add('ELEV. OF LAYER CENTER');
  BoundaryIdentifiers.Add('ELEV. OF LAND SURFACE');
  BoundaryIdentifiers.Add('CENTER ELEVATION');
  BoundaryIdentifiers.Add('EQUIVALENT Cr');
  BoundaryIdentifiers.Add('EQUIVALENT Cc');
  BoundaryIdentifiers.Add('INITIAL WATER CONTENT');
  BoundaryIdentifiers.Add('UZ CELL BOTTOM ELEV.');
//  BoundaryIdentifiers.Add(StrINSTANCE);
  BoundaryIdentifiers.Add('VOLUMETRIC BUDGET FOR ENTIRE MODEL');

  BoundaryIdentifiers.Add('REACH           REACH  REACH                  REACH      REACH      REACH       GWF      STREAMBED   STREAMBED');
  BoundaryIdentifiers.Add('REACH           REACH  REACH                 EXTERNAL      REACH       REACH       REACH       REACH       REACH       REACH     EXTERNAL      REACH      PERCENT');
  BoundaryIdentifiers.Add('SFR UPSTREAM FRACTIONS');

  BoundaryIdentifiers.Add('INPUT DATA FOR EACH STREAM SEGMENT');
  BoundaryIdentifiers.Add('Lake Gages:');
  BoundaryIdentifiers.Add('OPTION HAS BEEN SELECTED');
  BoundaryIdentifiers.Add('When solver convergence criteria are not met');
  BoundaryIdentifiers.Add('CROSS SECTION OPTION IS SPECIFIED');
  BoundaryIdentifiers.Add('CALCULATE FLOW BETWEEN ADJACENT CONSTANT-HEAD CELLS');
  BoundaryIdentifiers.Add('OUTPUT CONTROL');
  BoundaryIdentifiers.Add('WETTING CAPABILITY');
  BoundaryIdentifiers.Add('PARAMETERS DEFINED');
  BoundaryIdentifiers.Add('Parameters');
  BoundaryIdentifiers.Add('PRINTCODE FLAGS');
  BoundaryIdentifiers.Add('MNW2:');
  BoundaryIdentifiers.Add('MNW2 Input:');

  BoundaryIdentifiers.Add('RIPARIAN INFORMATION');
  BoundaryIdentifiers.Add('SEGMENT INFORMATION');
  BoundaryIdentifiers.Add('RIPARIAN ET   PERIOD');

  // MODFLOW-2000
  BoundaryIdentifiers.Add('INTERPRETING THE CALCULATED RUNS STATISTIC VALUE');

  // SEAWAT
  BoundaryIdentifiers.Add('MASS BUDGET FOR ENTIRE MODEL');
  BoundaryIdentifiers.Add('SEAWAT');
  BoundaryIdentifiers.Add('THE TRANSPORT MODEL CONSISTS OF');
  BoundaryIdentifiers.Add('POROSITY                 FOR LAYER');
  BoundaryIdentifiers.Add('INITIAL CONC.: COMP');
  BoundaryIdentifiers.Add('OUTPUT CONTROL OPTIONS');
  BoundaryIdentifiers.Add('ADVECTION SOLUTION OPTIONS');
  BoundaryIdentifiers.Add('DISPERSION INPUT PARAMETERS');
  BoundaryIdentifiers.Add('LONG. DISPERSIVITY (AL)  FOR LAYER');
  BoundaryIdentifiers.Add('SOLUTION BY THE GENERALIZED CONJUGATE GRADIENT METHOD');
  BoundaryIdentifiers.Add('NO    LAYER   ROW   COLUMN   CONCENTRATION       TYPE');

  // FMP2
  BoundaryIdentifiers.Add('WHEN TO READ SETTINGS:');
  BoundaryIdentifiers.Add('WATER POLICY SETTINGS:');
  BoundaryIdentifiers.Add('CONSUMPTIVE USE CONCEPT');
  BoundaryIdentifiers.Add('SURFACE-WATER SETTINGS (SUPPLY / RETURNFLOW / RIGHTS:');
  BoundaryIdentifiers.Add('PRINT SETTINGS:');
  BoundaryIdentifiers.Add('AUXILIARY FARM WELL PARAMETER:');
  BoundaryIdentifiers.Add('WELL NO. LAYER    ROW    COL  F-WELL ID    FARM ID      QMAXfac');
  BoundaryIdentifiers.Add(StrGROUNDSURFACE);
  BoundaryIdentifiers.Add('FARM IDENTIFICATION');
  BoundaryIdentifiers.Add('SOIL TYPE IDENTIFICATION');
  BoundaryIdentifiers.Add('NUMBER OF ACTIVE FARM WELLS:');
  BoundaryIdentifiers.Add('FARM-ID  NUMBER OF WELLS PER FARM  TOTAL MAX.CAPACITY PER FARM');
  BoundaryIdentifiers.Add('CROP IDENTIFICATION');
  BoundaryIdentifiers.Add('REF. EVAPOTRANSPIRATION');
  BoundaryIdentifiers.Add('Transpiratory and Evaporative Fractions of Crop Consumptive Use');
  BoundaryIdentifiers.Add('FRACTIONS OF IN-EFFICIENT LOSSES TO SW-RUNOFF FROM');
  BoundaryIdentifiers.Add('SEMI-ROUTED DELIVERIES TO FARMS (LOCATION OF DIVERSION-POINTS):');
  BoundaryIdentifiers.Add('SEMI-ROUTED RUNOFF-RETURNFLOW FROM FARMS (LOCATION WHERE RUNOFF ENTERS A STREAM REACH):');
  BoundaryIdentifiers.Add('FARM ALLOTMENT HEIGHT [L]:');
  BoundaryIdentifiers.Add('WELL NO. LAYER    ROW    COL  F-WELL ID    FARM ID      QMAX');
  BoundaryIdentifiers.Add('UNRANKED LIST OF NON-ROUTED DELIVERIES TO FARMS [L3]:');
  BoundaryIdentifiers.Add('LIST OF NON-ROUTED DELIVERIES IN RANKED SEQUENCE [L3/T]:');
  BoundaryIdentifiers.Add('FULLY ROUTED DELIVERY FROM THE FIRST, MOST');
  BoundaryIdentifiers.Add('FULLY ROUTED RUNOFF-RETURNFLOW PRORATED');
  BoundaryIdentifiers.Add('SEMI-ROUTED RUNOFF-RETURNFLOW');
  BoundaryIdentifiers.Add('FRACTIONS OF ACTIVE CELL ACREAGE');
  BoundaryIdentifiers.Add('ACREAGE OPTIMIZATION - TABLEAU MATRIX:');
  BoundaryIdentifiers.Add('PRIOR APPROPRIATION FOR FARM:');
  BoundaryIdentifiers.Add('ROUTING INFORMATION FOR FARM:');
  BoundaryIdentifiers.Add('DELIVERIES:');
  BoundaryIdentifiers.Add('SEMI-ROUTED DELIVERIES:');
  BoundaryIdentifiers.Add('RETURNFLOWS:');
  BoundaryIdentifiers.Add('FRACTIONS OF OPTIMIZED CELL AREAS:');
  BoundaryIdentifiers.Add('PRECIPITATION FLUX');
  BoundaryIdentifiers.Add('RIPARIAN CELL INFORMATION');

  // SWI
  BoundaryIdentifiers.Add('SWI2 DATASET');
  BoundaryIdentifiers.Add('NUZONE');
  BoundaryIdentifiers.Add('ZETA SURFACE');
  BoundaryIdentifiers.Add('SSZ');
  BoundaryIdentifiers.Add('IZONENR');

  // SWR
  BoundaryIdentifiers.Add('READING SWR1 PROCESS DATASET');
  BoundaryIdentifiers.Add('TIME-INVARIANT SURFACE-WATER ROUTING REACH DATA');
  BoundaryIdentifiers.Add('SWR REACH GROUPS: REACHES IN REACH GROUP');
  BoundaryIdentifiers.Add('SUMMARY OF SWR1 OPTIONS USED IN SIMULATION');
  BoundaryIdentifiers.Add('SWR OBSERVATION DATA:');
  BoundaryIdentifiers.Add('SUMMARY OF SWR REACH BOUNDARY CONDITIONS');
  BoundaryIdentifiers.Add('CONSTANT STAGE/INACTIVE REACH GROUPS');
  BoundaryIdentifiers.Add('SWR LEAKAGE   PERIOD');
  BoundaryIdentifiers.Add('FROUDE NUMBER SUMMARY');
  // AG
  BoundaryIdentifiers.Add('PROCESSING AG OPTIONS');
  BoundaryIdentifiers.Add('TIME KPER KSTP');
  BoundaryIdentifiers.Add('INFILTRATION WILL BE REJECTED USING');
  BoundaryIdentifiers.Add('HYDRAULIC CONDUCTIVITY OF LAND SURFACE');
//  BoundaryIdentifiers.Add('aaa');
//  BoundaryIdentifiers.Add('aaa');
//  BoundaryIdentifiers.Add('aaa');
//  BoundaryIdentifiers.Add('aaa');
//  BoundaryIdentifiers.Add('aaa');
//  BoundaryIdentifiers.Add('aaa');
//  BoundaryIdentifiers.Add('aaa');


// MODFLOW 6
  BoundaryIdentifiers.Add('MODFLOW 6');
  BoundaryIdentifiers.Add('READING SIMULATION');
  BoundaryIdentifiers.Add('TDIS -- TEMPORAL DISCRETIZATION PACKAGE');
  BoundaryIdentifiers.Add('READING SOLUTIONGROUP');
  BoundaryIdentifiers.Add('IMSLINEAR -- UNSTRUCTURED LINEAR SOLUTION PACKAGE');
  BoundaryIdentifiers.Add('CALLS TO NUMERICAL SOLUTION IN TIME STEP');
  BoundaryIdentifiers.Add('INFORMATION ON VARIABLES STORED IN THE MEMORY MANAGER');
  BoundaryIdentifiers.Add('PROCESSING GWF EXCHANGE OPTIONS');
  BoundaryIdentifiers.Add('PROCESSING EXCHANGE DIMENSIONS');
  BoundaryIdentifiers.Add('PROCESSING EXCHANGEDATA');
  BoundaryIdentifiers.Add('PROCESSING GNC OPTIONS');
  BoundaryIdentifiers.Add('PROCESSING GNC DIMENSIONS');
  BoundaryIdentifiers.Add('PROCESSING GNCDATA');
  BoundaryIdentifiers.Add('IDOMAIN FOR LAYER');
  BoundaryIdentifiers.Add('WEL NO.');
  BoundaryIdentifiers.Add('DRN NO.');
  BoundaryIdentifiers.Add('CHD NO.');
  BoundaryIdentifiers.Add('REUSING');
//  BoundaryIdentifiers.Add('The observation utility is active for');
  BoundaryIdentifiers.Add('RIV NO.');
  BoundaryIdentifiers.Add('GHB NO.');
  BoundaryIdentifiers.Add('UZF CELLS');
//  BoundaryIdentifiers.Add('UPDATING STORAGE VALUES');
//  BoundaryIdentifiers.Add('RIV   -- RIV PACKAGE');
  BoundaryIdentifiers.Add('RCH NO.');
  BoundaryIdentifiers.Add(StrTimeseriesControll);
  BoundaryIdentifiers.Add('AIR ENTRY PRESSURE');
  BoundaryIdentifiers.Add('ROOT PRESSURE');
  BoundaryIdentifiers.Add('ROOT ACTIVITY');
  BoundaryIdentifiers.Add('PROCESSING SEGMENT LIST');
  BoundaryIdentifiers.Add('PROCESSING WELL LIST');
  BoundaryIdentifiers.Add('PROCESSING AG STRESS PERIOD DATA');
  BoundaryIdentifiers.Add('READING AG STRESS PERIOD DATA');
  BoundaryIdentifiers.Add('READING IRRIGATION SEGMENT');
  BoundaryIdentifiers.Add('READING IRRIGATION WELL');
  BoundaryIdentifiers.Add('READING SUPPLEMENTAL WELL');
  BoundaryIdentifiers.Add('AG WELLS      PERIOD');
  BoundaryIdentifiers.Add('DIVERSION SEGMENTS     PERIOD');
  BoundaryIdentifiers.Add('SW IRRIGATION     PERIOD');
  BoundaryIdentifiers.Add('GW IRRIGATION     PERIOD');
  BoundaryIdentifiers.Add('CNC NO.');
  BoundaryIdentifiers.Add('FMI READING BUDGET TERMS');
  BoundaryIdentifiers.Add('SRC NO.');
  BoundaryIdentifiers.Add('LKT PACKAGE (');
  BoundaryIdentifiers.Add('SFT PACKAGE (');
  BoundaryIdentifiers.Add('UZT PACKAGE (');
  BoundaryIdentifiers.Add('CIM IN ');