unit UcodeUnit;

interface

uses Classes, Dialogs, SysUtils, Windows,
     GlobalTypesUnit, GlobalBasicData, JupiterUnit, Utilities,
    ParallelControlUnit, ParallelRunnerUnit;

  type

    { Enumerations }
    TUcodeMode = (umFwd, umSensAnal, umParEst, umTestLin, umPred, umAdvTestLin,
                  umNonlinUncert, umInvObjFunc);

    TUcModelInfo = class(TModelInfo)
      // If fields are added, modify function NumFields.
      fKashyapPri: double;
      fLnDeterFisherInfoMxPri: double;
      fSensByFwdDiff: boolean;
    public
      function NumFields: integer; override;
    end;

    TUcProject = class(TComponent)
      { One record defines scalar values for one complete UCODE project
        and methods for opening and saving project files.  }
      private
        // Fields.
        fUcMode: TUcodeMode;
        fMainInputFileName: string;
        fMainInputFileNamePred: string;
        fOutputPrefix: string;
        fOutputPrefixPred: string;
        // Options.
        fVerbose: LongInt;
        fDerivativesInterface: TFileName;
        fPathToMergedFile: TFileName;
        fUseModelDerivatives: boolean;
        // Merge_Files.
        // TODO 5 : fPathToFile and fSkipLines need to be arrays
        // (but only needed for supporting MODFLOW-2000, not MODFLOW-2005;
        // until MODFLOW-2005 includes SEN Process).
        fPathToFile: string255;
        fSkipLines: LongInt;
        // UCODE_Control_Data.
        fModelName: string12;
        fModelLengthUnits: string12;
        fModelTimeUnits: string12;
        fModelMassUnits: string12;
        fSensitivities: boolean;
        fPredictionSensitivities: boolean;
        fOptimize: boolean;
        fLinearity: boolean;
        fPrediction: boolean;
        fAdvLin: boolean;
        fLinearityAdv: string12;
        fAdvLinOpt: TAdvLinOpt;
        fNonLinearIntervals: boolean;
        fSosMethod: TSosMethod;
        fSosFile: string255;
        fSosSurface: string12;
        fStdErrOne: boolean;
        fWriteDerivedParams: boolean;
        fWritePriorInfo: boolean;
        fEigenValues: boolean;
        fStartRes: string12;
        fIntermedRes: string12;
        fFinalRes: string12;
        fStartSens: string;
        fIntermedSens: string;
        fFinalSens: string;
        fDataExchange: boolean;
        fCreateInitFiles: boolean;
        // Reg_GN_Controls
        fTolpar: double;
        fTolSOSC: double;
        fMaxIter: LongInt;
        fMaxChange: double;
        fMaxChangeRealm: string12;
        fMqrtDirection: double;
        fMqrtFactor: double;
        fMqrtIncrement: double;
        fQuasiNewton: boolean;
        fQNiter: LongInt;
        fQNsosr: double;
        fOmitDefault: LongInt;
        fOmitVals: TStringList;
        fStatsOnNonconverge: boolean;
        fOmitInsensitive: boolean;
        fMinimumSensRatio: double;
        fReincludeSensRatio: double;
        fTolParWtOS: double;
        fTrustRegion: string12;
        fMaxStep: double;
        fUseMaxStep: boolean;
        fConsecMax: LongInt;
        fParallelControl: TParallelControl;
        fParallelRunners: TParallelRunners;
        fRunnerFiles: TRunnerFiles;
        procedure SetMainInputFileName(const Value: string);
        procedure SetMainInputFileNamePred(const Value: string);
      published
        property UcMode: TUcodeMode read fUcMode write fUcMode;
        property MainInputFileName: string read fMainInputFileName
                        write SetMainInputFileName;
        property MainInputFileNamePred: string read fMainInputFileNamePred
                        write SetMainInputFileNamePred;
        property OutputPrefix: string read fOutputPrefix write fOutputPrefix;
        property OutputPrefixPred: string read fOutputPrefixPred write fOutputPrefixPred;
        // Options
        property Verbose: LongInt read fVerbose write fVerbose;
        property DerivativesInterface: TFileName read fDerivativesInterface
                 write fDerivativesInterface;
        property PathToMergedFile: TFileName read fPathToMergedFile
                 write fPathToMergedFile;
        property UseModelDerivatives: boolean read fUseModelDerivatives
                 write fUseModelDerivatives;
        // Merge_Files
        property PathToFile: string255 read fPathToFile write fPathToFile;
        property SkipLines: LongInt read fSkipLines write fSkipLines;
        // UCODE_Control_Data
        property ModelName: string12 read fModelName write fModelName;
        property ModelLengthUnits: string12 read fModelLengthUnits
                 write fModelLengthUnits;
        property ModelTimeUnits: string12 read fModelTimeUnits
                 write fModelTimeUnits;
        property ModelMassUnits: string12 read fModelMassUnits
                 write fModelMassUnits;
        property Sensitivities: boolean read fSensitivities write fSensitivities;
        property PredictionSensitivities: boolean read fPredictionSensitivities write fPredictionSensitivities;
        property Optimize: boolean read fOptimize write fOptimize;
        property Linearity: boolean read fLinearity write fLinearity;
        property Prediction: boolean read fPrediction write fPrediction;
        property LinearityAdv: string12 read fLinearityAdv write fLinearityAdv;
        property NonLinearIntervals: boolean read fNonLinearIntervals write fNonLinearIntervals;
        property AdvLinOpt: TAdvLinOpt read fAdvLinOpt write fAdvLinOpt;
        property SosSurface: string12 read fSosSurface write fSosSurface;
        property SosMethod: TSosMethod read fSosMethod write fSosMethod;
        property SosFile: string255 read fSosFile write fSosFile;
        property StdErrOne: boolean read fStdErrOne write fStdErrOne;
        property WriteDerivedParams: boolean read fWriteDerivedParams write fWriteDerivedParams;
        property WritePriorInfo: boolean read fWritePriorInfo write fWritePriorInfo;
        property EigenValues: boolean read fEigenValues write fEigenValues;
        property StartRes: string12 read fStartRes write fStartRes;
        property IntermedRes: string12 read fIntermedRes write fIntermedRes;
        property FinalRes: string12 read fFinalRes write fFinalRes;
        property StartSens: string read fStartSens write fStartSens;
        property IntermedSens: string read fIntermedSens write fIntermedSens;
        property FinalSens: string read fFinalSens write fFinalSens;
        property DataExchange: boolean read fDataExchange write fDataExchange;
        property CreateInitFiles: boolean read fCreateInitFiles
                 write fCreateInitFiles;
        // Reg_GN_Controls
        property Tolpar: double read fTolpar write fTolpar;
        property TolSOSC: double read fTolSOSC write fTolSOSC;
        property MaxIter: LongInt read fMaxIter write fMaxIter;
        property MaxChange: double read fMaxChange write fMaxChange;
        property MaxChangeRealm: string12 read fMaxChangeRealm
                 write fMaxChangeRealm;
        property MqrtDirection: double read fMqrtDirection write fMqrtDirection;
        property MqrtFactor: double read fMqrtFactor write fMqrtFactor;
        property MqrtIncrement: double read fMqrtIncrement write fMqrtIncrement;
        property QuasiNewton: boolean read fQuasiNewton write fQuasiNewton;
        property QNiter: LongInt read fQNiter write fQNiter;
        property QNsosr: double read fQNsosr write fQNsosr;
        property OmitDefault: LongInt read fOmitDefault write fOmitDefault;
        property OmitVals: TStringList read fOmitVals write fOmitVals;
        property StatsOnNonconverge: boolean read fStatsOnNonconverge
                 write fStatsOnNonconverge;
        property OmitInsensitive: boolean read fOmitInsensitive
                 write fOmitInsensitive;
        property MinimumSensRatio: double read fMinimumSensRatio
                 write fMinimumSensRatio;
        property ReincludeSensRatio: double read fReincludeSensRatio
                 write fReincludeSensRatio;
        property TolParWtOS: double read fTolParWtOS write fTolParWtOS;
        property TrustRegion: string12 read fTrustRegion write fTrustRegion;
        property MaxStep: double read fMaxStep write fMaxStep;
        property UseMaxStep: boolean read fUseMaxStep write fUseMaxStep;
        property ConsecMax: LongInt read fConsecMax write fConsecMax;
        property ParallelControl: TParallelControl read fParallelControl
                                                   write fParallelControl;
        property ParallelRunners: TParallelRunners read fParallelRunners
                                                   write fParallelRunners;
        property RunnerFiles: TRunnerFiles read fRunnerFiles
                                           write fRunnerFiles;
        // more to be added (including arrays of parameters and dependents?)
      public
        //  Methods
        constructor Create(aOwner: TComponent); override;
        destructor Destroy; override;
        function AbsMainInputFileName(ModelUse: TModelUse): string;
        procedure Assign(Source: TPersistent); override;
        procedure AssignMode(Mode: TUcodeMode);
        procedure BuildOptionsBlock(OptBlock: TStringList);
        function BuildParallelControlBlock(PCBlock: TStringList): boolean;
        function BuildParallelRunnersBlock(BlkFmt: TBlockFormat;
                                           PRBlock: TStringList): boolean;
        procedure BuildUcodeControlDataBlock(UCDBlock: TStringList);
        procedure BuildRegGNControlsBlock(RGNCBlock: TStringList);
        procedure CorrectRelativePaths(OrigProjDir: string);
        procedure ExportOmitFile(const Directory: string);
        function FindMainInputFileName: string;
        function GetModelInfo(ModelInfo: TUcModelInfo): boolean;
        function ModeIsParallelizable: boolean;
        function OutputMainFile: TFileName;
        function PopulateRunnerDirectories(var ErrMsg: string;
                     var NFiles: integer; var NDir: integer): boolean;
        function StartLocalRunners: integer;
        procedure UpdateMode();
    end; // end of TUcProject

  var
    SensOptions: array of string;
    { Parameter attribute types defined for UCODE }
    UcodePATypes: set of TParamAttType;
    { Dependent attribute types defined for UCODE }
    sdUcode: TSaveDialog;
    spSenMethod: array of TStringPair;
    slSenMethod: TStringList;
    TempUcProject: TUcProject;
    UcModelInfo: TUcModelInfo;
    ParallelUcodeModes: set of TUcodeMode;
    // TODO 2 : Add procedures to read _dm, _pa, _ss.
//    procedure Read_dm;
//    function Read_pa(): boolean;
//    procedure Read_ss;
    procedure U_Free;
    function U_GetSensOptPos(SensOpt: string): integer;
    procedure U_Initialize(aOwner: TComponent);

implementation

//###################################################################

{ TUCProject }

function TUcProject.AbsMainInputFileName(ModelUse: TModelUse): string;
// Generate absolute path for MainInputFileName or MainInputFileNamePred,
// depending on model use.
begin
  result := '';
//TODO 2 : If MainInputFileName or MainInputFileNamePred is blank, this returns wrong result
  case ModelUse of
    muCalib:
     begin
       if MainInputFileName <> '' then
         result := PathToAbsPath(ProjectDirectory, MainInputFileName);
     end;
    muPred:
     begin
       if MainInputFileNamePred <> '' then
         result := PathToAbsPath(ProjectDirectory, MainInputFileNamePred);
     end;
  end;
end;

procedure TUCProject.Assign(Source: TPersistent);
var
  PrjSource: TUCProject;
begin
  if Source is TUCProject then
  begin
    PrjSource := TUCProject(Source);
    self.UcMode := PrjSource.UcMode;
    fMainInputFileName := PrjSource.MainInputFileName;
    fMainInputFileNamePred := PrjSource.MainInputFileNamePred;
    OutputPrefix := PrjSource.OutputPrefix;
    OutputPrefixPred := PrjSource.OutputPrefixPred;
    Verbose := PrjSource.Verbose;
    DerivativesInterface := PrjSource.DerivativesInterface;
    PathToMergedFile := PrjSource.PathToMergedFile;
    UseModelDerivatives := PrjSource.UseModelDerivatives;
    PathToFile := PrjSource.PathToFile;
    SkipLines := PrjSource.SkipLines;
    ModelName := PrjSource.ModelName;
    ModelLengthUnits := PrjSource.ModelLengthUnits;
    ModelTimeUnits := PrjSource.ModelTimeUnits;
    ModelMassUnits := PrjSource.ModelMassUnits;
    Sensitivities := PrjSource.Sensitivities;
    PredictionSensitivities := PrjSource.PredictionSensitivities;
    fOptimize := PrjSource.Optimize;
    fLinearity := PrjSource.Linearity;
    fPrediction := PrjSource.Prediction;
    fAdvLin := PrjSource.fAdvLin;
    LinearityAdv := PrjSource.LinearityAdv;
    fAdvLinOpt := PrjSource.AdvLinOpt;
    fNonLinearIntervals := PrjSource.fNonLinearIntervals;
    //SosSurface := PrjSource.SosSurface;
    SosMethod := PrjSource.SosMethod;
    SosFile := PrjSource.SosFile;
    StdErrOne := PrjSource.StdErrOne;
    WriteDerivedParams := PrjSource.WriteDerivedParams;
    WritePriorInfo := PrjSource.WritePriorInfo;
    EigenValues := PrjSource.EigenValues;
    StartRes := PrjSource.StartRes;
    IntermedRes := PrjSource.IntermedRes;
    FinalRes := PrjSource.FinalRes;
    StartSens := PrjSource.StartSens;
    IntermedSens := PrjSource.IntermedSens;
    FinalSens := PrjSource.FinalSens;
    DataExchange := PrjSource.DataExchange;
    CreateInitFiles := PrjSource.CreateInitFiles;
    Tolpar := PrjSource.Tolpar;
    TolSOSC := PrjSource.TolSOSC;
    MaxIter := PrjSource.MaxIter;
    MaxChange := PrjSource.MaxChange;
    MaxChangeRealm := PrjSource.MaxChangeRealm;
    MqrtDirection := PrjSource.MqrtDirection;
    MqrtFactor := PrjSource.MqrtFactor;
    MqrtIncrement := PrjSource.MqrtIncrement;
    QuasiNewton := PrjSource.QuasiNewton;
    QNiter := PrjSource.QNiter;
    self.QNsosr := PrjSource.QNsosr;
    OmitDefault := PrjSource.OmitDefault;
    OmitVals.Assign(PrjSource.OmitVals);
    StatsOnNonconverge := PrjSource.StatsOnNonconverge;
    OmitInsensitive := PrjSource.OmitInsensitive;
    MinimumSensRatio := PrjSource.MinimumSensRatio;
    ReincludeSensRatio := PrjSource.ReincludeSensRatio;
    TolParWtOS := PrjSource.TolParWtOS;
    TrustRegion := PrjSource.TrustRegion;
    MaxStep := PrjSource.MaxStep;
    UseMaxStep := PrjSource.UseMaxStep;
    ConsecMax := PrjSource.ConsecMax;
    ParallelControl.Assign(PrjSource.ParallelControl);
    ParallelRunners.Assign(PrjSource.ParallelRunners);
    RunnerFiles.Assign(PrjSource.RunnerFiles);
  end;
end;

procedure TUcProject.AssignMode(Mode: TUcodeMode);
begin
  // Start by assigning default (Forward mode) values
  fSensitivities := False;
  fOptimize := False;
  fLinearity := False;
  fPrediction := False;
  fAdvLin := False;
  fNonLinearIntervals := False;
  SosSurface := 'no';
  UcMode := Mode;
  case Mode of
    umFwd: ; // do nothing
    umSensAnal:
      begin
        fSensitivities := True;
      end;
    umParEst:
      begin
        fSensitivities := True;
        fOptimize := True;
      end;
    umTestLin:
      begin
        fLinearity := True;
      end;
    umPred:
      begin
        //fSensitivities := True; { TODO 2 -cPredictions : Prediction default should be sensitivities=no--Eileen is changing Ucode to do this? }
        fPrediction := True;
      end;
    umAdvTestLin:
      begin
        fAdvLin := True;
      end;
    umNonlinUncert:
      begin
        fNonLinearIntervals := True;
      end;
    umInvObjFunc:
      begin
        SosSurface := 'yes'; { TODO 4 -cSOS : Add support for SOSSurface = file }//.
      end;
  end;
end;

procedure TUcProject.BuildOptionsBlock(OptBlock: TStringList);
var
  bdOptions: TBlockData;                 // Options
begin
  bdOptions := TBlockData.CreateAndAllocate(1,3); // Need 3 keywords
  try
    bdOptions.KeyValMatrix[0].Vtype := vtInt;
    bdOptions.KeyValMatrix[0].SetNameVal(0, 'Verbose', Verbose);
    bdOptions.KeyValMatrix[1].Vtype := vtStr;
    bdOptions.KeyValMatrix[1].SetNameVal(0, 'Derivatives_Interface',
                                   DerivativesInterface);
    bdOptions.KeyValMatrix[2].Vtype := vtStr;
    bdOptions.KeyValMatrix[2].SetNameVal(0, 'PathToMergedFile',
                                   PathToMergedFile);
    J_BuildInputBlock('Options', bfKeywords, bdOptions, OptBlock);
  finally
    bdOptions.Free;
  end;
end;

function TUcProject.BuildParallelControlBlock(PCBlock: TStringList): boolean;
var
  Defaults: TBlockData;
  bdParallelControl: TBlockData;        // Parallel_Control
  OK: boolean;
  Messg: string;
begin
  OK := False;
  // No need for keyword "OperatingSystem" because in ModelMate, Windows is assumed.
  Defaults := TBlockData.CreateAndAllocate(1,5);
  bdParallelControl := TBlockData.CreateAndAllocate(1,5); // Max 5 keywords
  try
    with Defaults do
      begin
        // Assign defaults for the Parallel_Control input block
        KeyValMatrix[0].Vtype := vtBool;
        KeyValMatrix[0].SetNameVal(0,'Parallel',False);
        KeyValMatrix[1].Vtype := vtDbl;
        KeyValMatrix[1].SetNameVal(0,'Wait',0.001);
        KeyValMatrix[2].Vtype := vtInt;
        KeyValMatrix[2].SetNameVal(0,'VerboseRunner',3);
        KeyValMatrix[3].Vtype := vtBool;
        KeyValMatrix[3].SetNameVal(0,'AutostopRunners',True);
        KeyValMatrix[4].Vtype := vtDbl;
        KeyValMatrix[4].SetNameVal(0,'TimeoutFactor',3.0);
      end;
    bdParallelControl.Assign(Defaults);
    with bdParallelControl do
      begin
        KeyValMatrix[0].SetVal(0,ParallelControl.Parallel);
        KeyValMatrix[1].SetVal(0,ParallelControl.Wait);
        KeyValMatrix[2].SetVal(0,ParallelControl.VerboseRunner);
        KeyValMatrix[3].SetVal(0,ParallelControl.AutoStopRunners);
        KeyValMatrix[4].SetVal(0,ParallelControl.TimeOutFactor);
      end;
    J_BuildInputBlockExclDef('Parallel_Control',bdParallelControl,
                                     Defaults, PCBlock, False);
    OK := True;
  finally
    Defaults.Free;
    bdParallelControl.Free;
    result := OK;
    if not OK then
      begin
        Messg := 'Error encountered building Parallel_Control block';
        ShowMessage(Messg);
      end;
  end;
end; // function TUcProject.BuildParallelControlBlock

function TUcProject.BuildParallelRunnersBlock(BlkFmt: TBlockFormat;
  PRBlock: TStringList): boolean;
var
  bdParallelRunners: TBlockData; // Parallel_Runners.
  I, J, NR, NumToUse: integer;
  RunnerDir, DirSep, Messg: string;
  OK: boolean;
begin
  DirSep := '\';
  OK := False;
  PRBlock.Clear;
  NumToUse := self.ParallelControl.NumRunnersToUse;
  NR := 0;
  if ParallelControl.Parallel then
    begin
      for I := 0 to ParallelRunners.Count - 1 do
        begin
          if ParallelRunners.Items[I].Use then
            NR := NR + 1;
        end;
    end;
  if (NR > 0) and (NumToUse > 0) then
    try
      // Need 3 columns (keywords) and NR rows in bdParallelRunners.
      // Keyword "Rename" is unneeded because OS is always Windows, and default "ren" is correct.
      if NumToUse < NR then NR := NumToUse;
      bdParallelRunners := TBlockData.CreateAndAllocate(NR,3);
      bdParallelRunners.KeyValMatrix[0].Vtype := vtStr; // RunnerName
      bdParallelRunners.KeyValMatrix[1].Vtype := vtStr; // RunnerDir
      bdParallelRunners.KeyValMatrix[2].Vtype := vtDbl; // RunTime
      //
      J := 0;
      for I := 0 to ParallelRunners.Count - 1 do
        if (ParallelRunners.Items[I].Use) and (J < NumToUse) then
          begin
            bdParallelRunners.KeyValMatrix[0].SetNameVal(J,'RunnerName',ParallelRunners.Items[I].Name);
            RunnerDir := ParallelRunners.Items[I].Directory + DirSep;
            bdParallelRunners.KeyValMatrix[1].SetNameVal(J,'RunnerDir',RunnerDir);
            bdParallelRunners.KeyValMatrix[2].SetNameVal(J,'RunTime',ParallelRunners.Items[I].ExpectedRunTime);
            J := J + 1;
          end;
      J_BuildInputBlock('Parallel_Runners', BlkFmt, bdParallelRunners, PRBlock);
      OK := True;
    finally
      FreeAndNil(bdParallelRunners);
      if not OK then
        Messg := 'Error encountered building Parallel_Runners block';
    end
  else
    begin
      OK := False;
      Messg := 'No parallel runners have been defined';
    end;
  result := OK;
  if not OK then
    ShowMessage(Messg);
end; // function TUcProject.BuildParallelRunnersBlock


procedure TUcProject.BuildRegGNControlsBlock(RGNCBlock: TStringList);
var
  Defaults: TBlockData;
  bdRegGNControls: TBlockData;           // Reg_GN_Controls
begin
  Defaults := TBlockData.CreateAndAllocate(1,20);
  bdRegGNControls := TBlockData.CreateAndAllocate(1,20); // Max 20 keywords
  try
    with Defaults do
      begin
        // Assign defaults for the Reg_GN_Controls input block
        KeyValMatrix[0].Vtype := vtDbl;
        KeyValmatrix[0].SetNameVal(0,'TolPar',0.01);
        KeyValMatrix[1].Vtype := vtDbl;
        KeyValMatrix[1].SetNameVal(0,'TolSOSC',0.0);
        KeyValMatrix[2].Vtype := vtInt;
        KeyValMatrix[2].SetNameVal(0,'MaxIter',5);
        KeyValMatrix[3].Vtype := vtDbl;
        KeyValMatrix[3].SetNameVal(0,'MaxChange',2.0);
        KeyValMatrix[4].Vtype := vtStr;
        KeyValMatrix[4].SetNameVal(0,'MaxChangeRealm','Native');
        KeyValMatrix[5].Vtype := vtDbl;
        KeyValMatrix[5].SetNameVal(0,'MqrtDirection',85.4);
        KeyValMatrix[6].Vtype := vtDbl;
        KeyValMatrix[6].SetNameVal(0,'MqrtFactor',1.5);
        KeyValMatrix[7].Vtype := vtDbl;
        KeyValMatrix[7].SetNameVal(0,'MqrtIncrement',0.001);
        KeyValMatrix[8].Vtype := vtBool;
        KeyValMatrix[8].SetNameVal(0,'QuasiNewton',False);
        KeyValMatrix[9].Vtype := vtInt;
        KeyValMatrix[9].SetNameVal(0,'QNiter',5);
        KeyValMatrix[10].Vtype := vtDbl;
        KeyValMatrix[10].SetNameVal(0,'QNsosr',0.01);
        KeyValMatrix[11].Vtype := vtInt;
        KeyValMatrix[11].SetNameVal(0,'OmitDefault',0);
        KeyValMatrix[12].Vtype := vtBool;
        KeyValMatrix[12].SetNameVal(0,'Stats_On_Nonconverge',True);
        KeyValMatrix[13].Vtype := vtBool;
        KeyValMatrix[13].SetNameVal(0,'OmitInsensitive',False);
        KeyValMatrix[14].Vtype := vtDbl;
        KeyValMatrix[14].SetNameVal(0,'MinimumSensRatio',0.005);
        KeyValMatrix[15].Vtype := vtDbl;
        KeyValMatrix[15].SetNameVal(0,'ReincludeSensRatio',0.02);
        KeyValMatrix[16].Vtype := vtDbl;
        KeyValMatrix[16].SetNameVal(0,'TolParWtOS',10.0);
        KeyValMatrix[17].Vtype := vtStr;
        KeyValMatrix[17].SetNameVal(0,'TrustRegion','no');
        KeyValMatrix[18].Vtype := vtDbl;
        KeyValMatrix[18].SetNameVal(0,'MaxStep',0.0);
        KeyValMatrix[19].Vtype := vtInt;
        KeyValMatrix[19].SetNameVal(0,'ConsecMax',5);
      end;
    bdRegGNControls.Assign(Defaults);
    with bdRegGNControls do
      begin
        KeyValMatrix[0].SetVal(0,self.Tolpar);
        KeyValMatrix[1].SetVal(0,self.TolSOSC);
        KeyValMatrix[2].SetVal(0,self.MaxIter);
        KeyValMatrix[3].SetVal(0,self.MaxChange);
        KeyValMatrix[4].SetVal(0,self.MaxChangeRealm);
        KeyValMatrix[5].SetVal(0,self.MqrtDirection);
        KeyValMatrix[6].SetVal(0,self.MqrtFactor);
        KeyValMatrix[7].SetVal(0,self.MqrtIncrement);
        KeyValMatrix[8].SetVal(0,self.QuasiNewton);
        KeyValMatrix[9].SetVal(0,self.QNiter);
        KeyValMatrix[10].SetVal(0,self.QNsosr);
        KeyValMatrix[11].SetVal(0,self.OmitVals.Count);  // value for OmitDefault
        KeyValMatrix[12].SetVal(0,self.StatsOnNonconverge);
        KeyValMatrix[13].SetVal(0,self.OmitInsensitive);
        KeyValMatrix[14].SetVal(0,self.MinimumSensRatio);
        KeyValMatrix[15].SetVal(0,self.ReincludeSensRatio);
        KeyValMatrix[16].SetVal(0,self.TolParWtOS);
        KeyValMatrix[17].SetVal(0,self.TrustRegion);
        KeyValMatrix[18].SetVal(0,self.MaxStep);
        KeyValMatrix[19].SetVal(0,self.ConsecMax);
      end;
    J_BuildInputBlockExclDef('Reg_GN_Controls',bdRegGNControls,
                                     Defaults, RGNCBlock, False);
  finally
    Defaults.Free;
    bdRegGNControls.Free;
  end;
end; // function TUcProject.BuildRegGNControlsBlock

procedure TUcProject.BuildUcodeControlDataBlock(UCDBlock: TStringList);
var
  Defaults: TBlockData;
  bdUcodeControlData: TBlockData;        // UCODE_Control_Data
begin
  Defaults := TBlockData.CreateAndAllocate(1,24);
  bdUcodeControlData := TBlockData.CreateAndAllocate(1,24); // Max 24 keywords
  try
    with Defaults do
      begin
        // Assign defaults for the UCODE_Control_Data input block
        KeyValMatrix[0].Vtype := vtStr;
        KeyValMatrix[0].SetNameVal(0,'ModelName','');
        KeyValMatrix[1].Vtype := vtStr;
        KeyValMatrix[1].SetNameVal(0,'ModelLengthUnits','');
        KeyValMatrix[2].Vtype := vtStr;
        KeyValMatrix[2].SetNameVal(0,'ModelMassUnits','');
        KeyValMatrix[3].Vtype := vtStr;
        KeyValMatrix[3].SetNameVal(0,'ModelTimeUnits','');
        KeyValMatrix[4].Vtype := vtBool;
        KeyValMatrix[4].SetNameVal(0,'Sensitivities',False);
        KeyValMatrix[5].Vtype := vtBool;
        KeyValMatrix[5].SetNameVal(0,'Optimize',False);
        KeyValMatrix[6].Vtype := vtBool;
        KeyValMatrix[6].SetNameVal(0,'Linearity',False);
        KeyValMatrix[7].Vtype := vtBool;
        KeyValMatrix[7].SetNameVal(0,'Prediction',False);
        KeyValMatrix[8].Vtype := vtStr;
        KeyValMatrix[8].SetNameVal(0,'LinearityAdv','no');
        KeyValMatrix[9].Vtype := vtBool;
        KeyValMatrix[9].SetNameVal(0,'NonlinearIntervals',False);
        KeyValMatrix[10].Vtype := vtStr;
        KeyValMatrix[10].SetNameVal(0,'SOSSurface','no');
        KeyValMatrix[11].Vtype := vtStr;
        KeyValMatrix[11].SetNameVal(0,'SOSFile','');
        KeyValMatrix[12].Vtype := vtBool;
        KeyValMatrix[12].SetNameVal(0,'StdErrOne',False);
        KeyValMatrix[13].Vtype := vtBool;
        KeyValMatrix[13].SetNameVal(0,'WriteDerivedParams',True);
        KeyValMatrix[14].Vtype := vtBool;
        KeyValMatrix[14].SetNameVal(0,'WritePriorInfo',True);
        KeyValMatrix[15].Vtype := vtBool;
        KeyValMatrix[15].SetNameVal(0,'EigenValues',True);
        KeyValMatrix[16].Vtype := vtStr;
        KeyValMatrix[16].SetNameVal(0,'StartRes','yes');
        KeyValMatrix[17].Vtype := vtStr;
        KeyValMatrix[17].SetNameVal(0,'IntermedRes','no');
        KeyValMatrix[18].Vtype := vtStr;
        KeyValMatrix[18].SetNameVal(0,'FinalRes','yes');
        KeyValMatrix[19].Vtype := vtStr;
        KeyValMatrix[19].SetNameVal(0,'StartSens','dss');
        KeyValMatrix[20].Vtype := vtStr;
        KeyValMatrix[20].SetNameVal(0,'IntermedSens','none');
        KeyValMatrix[21].Vtype := vtStr;
        KeyValMatrix[21].SetNameVal(0,'FinalSens','dss');
        KeyValMatrix[22].Vtype := vtBool;
        KeyValMatrix[22].SetNameVal(0,'DataExchange',True);
        KeyValMatrix[23].Vtype := vtBool;
        KeyValMatrix[23].SetNameVal(0,'CreateInitFiles',False);
      end;
    bdUcodeControlData.Assign(Defaults);
    with bdUcodeControlData do
      begin
        KeyValMatrix[0].SetVal(0,self.ModelName);
        KeyValMatrix[1].SetVal(0,self.ModelLengthUnits);
        KeyValMatrix[2].SetVal(0,self.ModelMassUnits);
        KeyValMatrix[3].SetVal(0,self.ModelTimeUnits);
        // Sensitivities is a special case.
        case UcMode of
          umFwd: ;
          umSensAnal: KeyValMatrix[4].SetVal(0,True);
          umParEst: KeyValMatrix[4].SetVal(0,True);
          umTestLin: ;
          umPred: KeyValMatrix[4].SetVal(0,PredictionSensitivities);
          umAdvTestLin: ;
          umNonlinUncert: ;
          umInvObjFunc: ;
        end;
        KeyValMatrix[5].SetVal(0,self.Optimize);
        KeyValMatrix[6].SetVal(0,self.Linearity);
        KeyValMatrix[7].SetVal(0,self.Prediction);
        KeyValMatrix[8].SetVal(0,self.LinearityAdv);
        KeyValMatrix[9].SetVal(0,self.NonLinearIntervals);
        KeyValMatrix[10].SetVal(0,self.SosSurface);
        KeyValMatrix[11].SetVal(0,self.SosFile);
        KeyValMatrix[12].SetVal(0,self.StdErrOne);
        KeyValMatrix[13].SetVal(0,self.WriteDerivedParams);
        KeyValMatrix[14].SetVal(0,self.WritePriorInfo);
        KeyValMatrix[15].SetVal(0,self.EigenValues);
        KeyValMatrix[16].SetVal(0,self.StartRes);
        KeyValMatrix[17].SetVal(0,self.IntermedRes);
        KeyValMatrix[18].SetVal(0,self.FinalRes);
        KeyValMatrix[19].SetVal(0,self.StartSens);
        KeyValMatrix[20].SetVal(0,self.IntermedSens);
        KeyValMatrix[21].SetVal(0,self.FinalSens);
        KeyValMatrix[22].SetVal(0,self.DataExchange);
        // CreateInitFiles is a special case
        case UcMode of
          umFwd: ;
          umSensAnal: KeyValMatrix[23].SetVal(0,self.CreateInitFiles);
          umParEst: ;
          umTestLin: ;
          umPred: ;
          umAdvTestLin: ;
          umNonlinUncert: ;
          umInvObjFunc: ;
        end;
      end;
    J_BuildInputBlockExclDef('UCODE_Control_Data',bdUcodeControlData,
                                     Defaults, UCDBlock, False);
  finally
    Defaults.Free;
    bdUcodeControlData.Free;
  end;
end;

procedure TUcProject.CorrectRelativePaths(OrigProjDir: string);
var
  OldRelPath: string;
  I: Integer;
begin
  if MainInputFileName <> '' then
    begin
      OldRelPath := MainInputFileName;
      MainInputFileName := ChangeRelPath(OrigProjDir, ProjectDirectory, OldRelPath);
    end;
  if MainInputFileNamePred <> '' then
    begin
      OldRelPath := MainInputFileNamePred;
      MainInputFileNamePred := ChangeRelPath(OrigProjDir, ProjectDirectory, OldRelPath);
    end;
  if FileExists(DerivativesInterface) then
    begin
      OldRelPath := DerivativesInterface;
      DerivativesInterface := ChangeRelPath(OrigProjDir, ProjectDirectory, OldRelPath);
    end;
  if FileExists(PathToMergedFile) then
    begin
      OldRelPath := PathToMergedFile;
      PathToMergedFile := ChangeRelPath(OrigProjDir, ProjectDirectory, OldRelPath);
    end;
  if FileExists(PathToFile) then
    begin
      OldRelPath := PathToFile;