{@name is used to define @link(TCustomModflowWriter) which is an abstract
 base class for writing MODFLOW input files.

@author(Richard B. Winston <rbwinst@usgs.gov>)}
unit CustomModflowWriterUnit;

interface

uses ModflowFmpFarmUnit, ModflowFmpClimateUnit, ModflowFmpCropUnit,
  ModflowFmpSoilUnit,
  Mt3dmsChemSpeciesUnit, Vcl.Forms,
  System.SysUtils,
  PestPropertiesUnit,
  Windows, Types,
  LayerStructureUnit,
  ModflowTimeUnit,
  FluxObservationUnit,
  Classes, Contnrs, RbwParser, AbstractGridUnit,
  SubscriptionUnit, GoPhastTypes, DataSetUnit, PhastModelUnit, ModflowCellUnit,
  ModflowOutputControlUnit, ScreenObjectUnit, ModflowBoundaryUnit,
  ModflowPackageSelectionUnit, ModflowTransientListParameterUnit,
  OrderedCollectionUnit, ModflowBoundaryDisplayUnit, ModflowParameterUnit,
  System.Generics.Collections, SparseDataSets, Modflow6ObsUnit,
  Modflow6TimeSeriesCollectionsUnit;

type
  // @name indicates whether the file in the name file is an input file
  // and output file or undetermined.
  TFileOption = (foNone, foInput, foOutput, foInputAlreadyExists);

  TModflowArrayType = (matStructured, matUnstructured, mat1D);

  {@name is used in @link(TCustomModflowWriter.CheckArray)
   @value(cvmGreater If the value in the array is greater than
     CheckValue in @link(TCustomModflowWriter.CheckArray),
     the value in the array is OK.)
   @value(cvmGreaterEqual If the value in the array is greater than or equal to
     CheckValue in @link(TCustomModflowWriter.CheckArray),
     the value in the array is OK.)
   @value(cvmEqual If the value in the array is equal to
     CheckValue in @link(TCustomModflowWriter.CheckArray),
     the value in the array is OK.)
   @value(cvmNotEqual If the value in the array is not equal to
     CheckValue in @link(TCustomModflowWriter.CheckArray),
     the value in the array is OK.)
   @value(cvmLessThan If the value in the array is less than
     CheckValue in @link(TCustomModflowWriter.CheckArray),
     the value in the array is OK.)
   @value(cvmLessThanEqual If the value in the array is less than or equal to
     CheckValue in @link(TCustomModflowWriter.CheckArray),
     the value in the array is OK.)
  }
  TCheckValueMethod = (cvmGreater, cvmGreaterEqual, cvmEqual,
    cvmNotEqual, cvmLessThan, cvmLessThanEqual, cvmGradient);

  {@name is used in @link(TCustomModflowWriter.CheckArray) to specify
    whether cases that don't pass the check should be treated as errors or
    warnings.
    @value(etError If something doesn't pass the check, it should be treated
      as an error.)
    @value(etWarning If something doesn't pass the check, it should be treated
      as a warning.)
      }
  TErrorType = (etError, etWarning);
  TArrayWritingFormat = (awfModflow, awfMt3dms, awfModflow_6);

  TTestRealValueOkProcedure = reference to procedure (Value: double);
  TTestIntValueOkProcedure = reference to procedure (Value: Integer);

  TBoundaryFlowObservationLocation = record
//    FCell: TCellLocation;
    FName: string;
    FBoundName: string;
    FMf6Obs: TModflow6Obs;
  end;

  TBoundaryFlowObservationLocationList = TList<TBoundaryFlowObservationLocation>;

  TCustomFileWriter = class(TObject)
  strict protected
    // name is the file that is created by @classname.
    FFileStream: TFileStream;
    FPestDataArrays: TDictionary<string, TDataArray>;
    // @name is the name of the file being created.
    // It is different from @link(FInputFileName)
    FNameOfFile: string;
    FFileStreamList: TList<TFileStream>;
  private
    // See @link(Model).
    FModel: TCustomModel;
    FWritingTemplate: boolean;
  protected
    FEvaluationType: TEvaluationType;
    FPestParamUsed: Boolean;
    // @name is the name of the file that will eventually be read by the
    // model. It differs from @link(FNameOfFile) in that is the same
    // regardless or whether the file being created is the actual input file
    // or a template file being created for PEST.
    FInputFileName: string;
    FTimeSeriesNames: TStringList;
    // @name closes the file that is being exported.
    // @seealso(OpenFile)
    procedure CloseFile;
    // @name opens the input file to be exported.
    // @seealso(CloseFile)
    procedure OpenFile(const FileName: string);
    // @name generates a comment line for a MODFLOW input file indentifying
    // the file type
    function File_Comment(const FileID: string): string;
    // @name writes a comment line to the output file.
    procedure WriteCommentLine(const Comment: string);
    procedure WriteExitSpec(ExitSpec: TSutraExitSpecificationMethod);
    procedure WriteLimit(Limit: TSutraLimitType);
    // @name returns the extension (including the initial period) for the
    // MODFLOW input file to be exported.
    class function Extension: string; virtual; abstract;
    procedure WriteTemplateFormula(ParameterName: string;
      ModifierValue: double; Method: TPestParamMethod);
    procedure WriteModflowParamFormula(ModflowParameterName: string;
      PestParValue: string; Value: double; ACell: TValueCell);

    procedure WritePestTemplateLine(AFileName: string);
    function GetPestTemplateFormula(Value: double; PestParValue: string;
      PestSeriesValue: string; Method: TPestParamMethod;
      ACell: PCellLocation; const AScreenObject: TObject; var ModifiedValue: double): string;
    function GetPestTemplateFormulaOrValue(Value: double; PestParValue: string;
      PestSeriesValue: string; Method: TPestParamMethod;
      ACell: PCellLocation; const AScreenObject: TObject): string;
    function WritePestTemplateFormula(Value: double; PestParValue: string;
      PestSeriesValue: string; Method: TPestParamMethod;
      ACell: TValueCell; FixedLength: Integer = 0;
      ChangeSign: Boolean = False): double ; overload;
    function WritePestTemplateFormula(Value: double; PestParValue: string;
      PestSeriesValue: string; Method: TPestParamMethod;
      ACell: PCellLocation; AScreenObject: TObject; FixedLength: Integer = 0;
      ChangeSign: Boolean = False): double; overload;
    procedure WritePestTemplateFormulaOrValue(Value: double; PestParValue: string;
      PestSeriesValue: string; Method: TPestParamMethod;
      ACell: PCellLocation; AScreenObject: TObject; FixedLength: Integer = 0;
      ChangeSign: Boolean = False); overload;
    procedure WritePestZones(DataArray: TDataArray; InputFileName: string;
      const DataArrayID, Prefix: string);
    // @name creates a new file whose name is FileName and writes all values
    // written to file to that file until @link(CloseTempFile) is called.
    procedure OpenTempFile(const FileName: string);
    // @name closes the last file created with @link(OpenTempFile) and reverts
    // to writing data to the prior location.
    procedure CloseTempFile;
    property NameOfFile: string read FNameOfFile;
    function GetPestNonTransientTemplateFormula(DataArray: TDataArray;
      Layer, Row, Col: Integer): string;
    function GetPestParamFormula(Value: double; PestParName: string): string;
    procedure WriteTemplateHeader;
    procedure ExtendedTemplateFormula(var Formula: string);
    procedure AssignPestFormula(var Formula: string;
      const PestSeriesName: string; SeriesMethod: TPestParamMethod;
      PestNames: TStringList);
    // Write either the data array value at the specified location
    // or a formula to be evaluated by EnhancedTemplateProcessor
    procedure WriteDataArrayValueOrFormula(DataArray: TDataArray;
      Layer, Row, Col: Integer);
    // Write a formula for EnhancedTemplateProcessor or write a value
    // based on an identified parameter or PEST-modified data set.
    // If Layer < 0, only parameters will be used, not data sets.
    procedure WriteFormulaOrValueBasedOnAPestName(const PestName: string;
      Value: double; Layer, Row, Column: Integer);
    procedure WriteBeginPackageData;
  public
    function GwtFileName(const AFileName: string; SpeciesIndex: Integer): string;
    // @name converts AFileName to use the correct extension for the file.
    class function FileName(const AFileName: string): string;
    {@name is the model to be exported.}
    property Model: TCustomModel read FModel;
    // @name should be set to True when an input file template is being written.
    property WritingTemplate: boolean read FWritingTemplate write FWritingTemplate;
    // the period as the decimal separator.
    class Function FortranDecimal(NumberString : string) : string;
    // @name converts "Value" to an string padded at the beginning with blank
    // characters so that the resulting string as a length of "Width".
    class function FixedFormattedInteger(const Value, Width: integer): string;
    // @name converts "Value" to an string padded at the beginning with blank
    // characters so that the resulting string as a length of "Width".
    class function FixedFormattedReal(const Value : double;
      const Width : integer) : string;
    // @name converts "Value" to a string.  The decimal separator will
    // always be a period.
    class function FreeFormattedReal(const Value : double) : string;
    // @name creates and instance of @classname.
    // @param(Model is the @link(TCustomModel) to be exported.)
    Constructor Create(AModel: TCustomModel; EvaluationType: TEvaluationType); virtual;
    destructor Destroy; override;
    // @name writes an end of line to the output file.
    procedure NewLine; virtual;
    // @name writes Value to the output with a leading blank space.
    procedure WriteFloat(const Value: double);
    procedure WriteFloatCondensed(const Value: double);
    procedure WriteF10Float(const Value: double);
    procedure WriteF15Float(const Value: double);
    // @name writes Value to the output with a single blank space.
    procedure WriteFreeInteger(Const Value: integer);
    // @name writes Value to the output with a leading blank space(s).
    procedure WriteInteger(Const Value: integer);
    // @name writes Value to the output in I10 format.
    procedure WriteI10Integer(Const Value: integer; const ErrorID: string);
    // @name writes Value to the output in I5 format.
    procedure WriteI5Integer(Const Value: integer; const ErrorID: string);
    // @name writes Value to the output in I2 format.
    procedure WriteI2Integer(Const Value: integer; const ErrorID: string);
    // @name writes Value to the output with NO leading blank space.
    procedure WriteString(const Value: String); overload;
    procedure WriteString(const Value: AnsiString); overload; virtual;
    class function PestUtilityProgramPath(UtilityProgramName,
      AFileName: string): string;
    procedure AddUsedPestDataArray(ADataArray: TDataArray);
    procedure ClearUsedPestDataArrays;
    function GetUsedPestDataArrays: TArray<TDataArray>;
    // Name returns an empty string if no file needs to be created.
    // otherwise, it returns the name of the arrays file to be used
    // in the PEST template for a boundary condition.
    function WriteArraysFile(TemplateFileName: string): string;
    { @name writes one layer of DataArray to the output file.
      @param(DataArray is the TDataArray to be written.)
      @param(LayerIndex is the layer in DataArray to be written.)
      @param(ArrayName is written as a comment
        identifying the data set being written.)
    }
    procedure WriteArray(const DataArray: TDataArray; const LayerIndex: integer;
      const Comment: string;  NoValueAssignedAnnotation: string;
      const MF6_Arrayname: string; CacheArray: boolean = True;
      ShouldWriteHeader: Boolean = True; ForceFullArray: Boolean = False); virtual;
    {
    @name returns whether or not PEST parameters are used with DataArray in the
    layer designated by LayerIndex.
    If the result is @True, @link(WriteArray) will handle the data set
    differently
    }
    function DataArrayUsesPestParameters(const DataArray: TDataArray): boolean;
    property TimeSeriesNames: TStringList read FTimeSeriesNames;
end;

  { @name is an abstract base class used as an ancestor for classes that
    write MODFLOW input files.
  }
  TCustomModflowWriter = class(TCustomFileWriter)
  private
    // @name writes a header for DataArray using either
    // @link(WriteConstantU2DINT) or @link(WriteU2DRELHeader).
    procedure WriteHeader(const DataArray: TDataArray;
      const Comment: string; const MF6_ArrayName: string); overload;
    procedure WriteHeader(const DataType: TRbwDataType;
      const Comment: string; const MF6_ArrayName: string); overload;
    function CheckArrayUniform(const LayerIndex: Integer;
      const DataArray: TDataArray): boolean;  overload;
    function CheckArrayUniform(const LayerIndex: Integer;
      const DataArray: TDataArray; var IntValue: Integer;
      var BoolValue: Boolean; var RealValue: Double): boolean; overload;
    procedure WriteArrayValues(const LayerIndex: Integer;
      const DataArray: TDataArray);
  protected
    FArrayWritingFormat: TArrayWritingFormat;
    // @name generates a comment line for a MODFLOW input file indentifying
    // the package.
    function PackageID_Comment(APackage: TModflowPackageSelection): string; virtual;
    // @name writes Lines as comments.
    procedure WriteCommentLines(const Lines: TStrings);
    // @name returns the proper IPRN for specifying whether to print an
    // integer input array
    function IPRN_Integer: integer;
    function IPRN_Mt3dms_Integer: integer;
    // @name returns the proper IPRN for specifying whether to print an
    // real number input array
    function IPRN_Real: integer;
    function IPRN_Mt3dms_Real: integer;
    // @name retrieves the proper unit number for the cell-by-cell flow
    // file.
    procedure GetFlowUnitNumber(var UnitNumber: Integer); virtual;
    // @name writes a U2DREL array based on the contents of List.
    //  List is sometimes a @link(TValueCellList)
    // or a list of list of @link(TValueCellList)
    // or a TList.
    // DataTypeIndex indicates which parameter of the @link(TValueCell)
    // to use.
    // DataType indicates what sort of information in the TList.
    // DefaultValue indicates the proper default parameter for the gridded data.
    // If FreeArray is @true, TransientArray will be set to nil.
    // If FreeArray is @false, TransientArray will be set
    // to the @link(TDataArray) that was exported and it will be the caller's
    // responsibility to free TransientArray
    procedure WriteTransient2DArray(const Comment: string;
      DataTypeIndex: Integer; DataType: TRbwDataType; DefaultValue: Double;
      List: TList; AssignmentMethod: TUpdateMethod; AdjustForLGR: boolean;
      var TransientArray: TDataArray; const MF6_ArrayName: string;
      FreeArray: boolean = True; ShouldWriteHeader: Boolean = True;
      ForceFullArray: Boolean = False);
    procedure WriteMf6_DataSet(DataArray: TDataArray; const ID: string);
    // SAVE_FLOWS
    procedure WriteSaveFlowsOption;
    procedure WriteBeginOptions;
    procedure WriteEndOptions;
    procedure PrintListInputOption;
    function ShouldCheckCell(LayerIndex, RowIndex, ColIndex: integer)
      : boolean; virtual;
    procedure WriteBeginDimensions;
    procedure WriteEndDimensions;
    // @name is used to warn the user that an array has not been specified.
    // It is overriden in the RCH, EVT, and ETS packages.
    procedure HandleMissingArrayData; virtual;
    procedure WriteBeginPeriod(StressPeriodIndex: integer);
    procedure WriteEndPeriod;
    procedure WriteBeginGridData;
    procedure WriteEndGridData;

    // Write a value or a formula for EnhancedTemplateProcessor for a
    // boundary condition cell. Index is used to access the appropiate
    // value, PEST name, PEST Series name and PEST series method.
    // The result is the value that will be written to the file as
    // modified by applicable the PEST variables.
    // the result will be zero if a MODFLOW 6 time series name will be
    // written.
    function WriteValueOrFormula(Cell: TValueCell; Index: integer;
      FixedLength: Integer = 0; ChangeSign: Boolean = False): double;

    procedure WritePestFormulaOrValue(const PestName, PestSeriesName: string;
      PestMethod: TPestParamMethod; Value: double);
    procedure WriteEndPackageData;
  public
    // @name converts a real number represented as a string to always use
    property ArrayWritingFormat: TArrayWritingFormat read FArrayWritingFormat;
    {@name checks that the values stored in DataArray are valid.
    @name returns @true if no error is found.
    @param(DataArray is the @link(TDataArray) to be checked.)
    @param(LayerIndex is the layer (first index) in DataArray to be checked.)
    @param(ErrorOrWarningMessage is the message to be displayed to the
      user if the check fails.)
    @param(CheckMethod indicates how the data in DataArray will be checked.)
    @param(CheckValue is the value against which the data in DataArray
      will be checked.)
    @param(ErrorType indicates whether problems discovered in @name should be
      considered errors or warnings.)
    }
    function CheckArray(const DataArray: TDataArray; const LayerIndex: integer;
      const ErrorOrWarningMessage: string; CheckMethod: TCheckValueMethod;
      CheckValue: double; ErrorType: TErrorType): boolean;
    // @name creates and instance of @classname.
    // @param(Model is the @link(TCustomModel) to be exported.)
    Constructor Create(AModel: TCustomModel; EvaluationType: TEvaluationType); override;
    { @name writes one layer of DataArray to the output file.
      @param(DataArray is the TDataArray to be written.)
      @param(LayerIndex is the layer in DataArray to be written.)
      @param(ArrayName is written as a comment
        identifying the data set being written.)
    }
    procedure WriteArray(const DataArray: TDataArray; const LayerIndex: integer;
      const Comment: string;  NoValueAssignedAnnotation: string;
      const MF6_Arrayname: string; CacheArray: Boolean = True;
      ShouldWriteHeader: Boolean = True; ForceFullArray: Boolean = False); override;
    // @name writes value to the output file using the U2DINT format in MODFLOW
    // or the IARRAY array reader in MT3DMS depending on the value of
    // @link(FArrayWritingFormat)
    // for cases when the array is a constant.
    procedure WriteConstantU2DINT(const Comment: string;
      const Value: integer; ArrayType: TModflowArrayType;
      const MF6_ArrayName: string); virtual;
    // @name writes value to the output file using the U2DREL format in MODFLOW
    // or the RARRAY array reader in MT3DMS depending on the value of
    // @link(FArrayWritingFormat)
    // for cases when the array is a constant.
    procedure WriteConstantU2DREL(const Comment: string;
      const Value: double; ArrayType: TModflowArrayType;
      const MF6_ArrayName: string); virtual;
    // @name writes DataArray in cross section format.
    procedure WriteCrossSectionArray(const DataArray: TDataArray;
      const Comment: string; const MF6_ArrayName: string);
    // @name writes the IFACE parameter in MODFLOW.
    procedure WriteIface(const Value: TIface);
    // @name writes the header for the U2DINT array reader in MODFLOW
    // or the IARRAY array reader in MT3DMS depending on the value of
    // @link(FArrayWritingFormat).
    // @param(Comment is used to identify the array being written.)
    Procedure WriteU2DINTHeader(const Comment: string;
      ArrayType: TModflowArrayType; const MF6_ArrayName: string); virtual;
    // @name writes the header for the U2DINT array reader in MODFLOW
    // or the RARRAY array reader in MT3DMS depending on the value of
    // @link(FArrayWritingFormat).
    // @param(Comment is used to identify the array being written.)
    Procedure WriteU2DRELHeader(const Comment: string;
      ArrayType: TModflowArrayType; const MF6_ArrayName: string); virtual;
    // @name writes a line to the name file.
    class procedure WriteToNameFile(const Ftype: string;
      const UnitNumber: integer; FileName: string;
      const Option: TFileOption; AModel: TCustomModel;
      RelativeFileName: boolean = False; PackageName: String  = ''); overload;
    class procedure WriteToNameFile(const Ftype: string;
      UnitNumber: integer; FileName: string;
      const Option: TFileOption; OutputSuppression: TOutputSuppression;
      AModel: TCustomModel;
      RelativeFileName: boolean = False; PackageName: String = ''); overload;
    procedure WriteToGwtNameFile(const Ftype: string; FileName: string;
      SpeciesIndex: Integer; PackageName: string = '');
    class procedure WriteToMt3dMsNameFile(const Ftype: string;
      const UnitNumber: integer; FileName: string; FileOption: TFileOption;
      AModel: TCustomModel; RelativeFileName: boolean = False; Option: String = '');
    // @name adds a comment line to the name file.
    class procedure AddNameFileComment(const Comment: string);
  end;

  // @name is an abstract base class used to generate input for
  // MODFLOW for a specific package.
  TCustomPackageWriter = class(TCustomModflowWriter)
  private
    FWarningRoot: string;
    // @name must be nil or TModflowMvrWriter
    FMvrWriter: TObject;
    procedure SetMvrWriter(const Value: TObject);
  protected
    FTimeSeriesFileNames: TStringList;
    procedure SetTimeListUpToDate(List: TModflowBoundaryDisplayTimeList);
    procedure SetTimeListsUpToDate(TimeLists: TModflowBoundListOfTimeLists); overload;
    procedure SetTimeListsUpToDate(TimeLists: TList<TModflowBoundListOfTimeLists>); overload;
    // @name identifies the package that is being exported.
    function Package: TModflowPackageSelection; virtual; abstract;
    // @name writes the comments for the current package.
    // @name also writes a comment identifying the package.
    procedure WriteDataSet0;
    // @name prepares the lists in TimeLists for display when the
    // lists in question are not used.
    procedure UpdateNotUsedDisplay(TimeLists: TModflowBoundListOfTimeLists); overload;
    procedure UpdateNotUsedDisplay(TimeLists: TList<TModflowBoundListOfTimeLists>); overload;
    // @name updates the @link(TDataArray)s in DataArrayList
    // using the cells @link(TValueCellList CellList).
    // @param(ParameterIndicies indicates which properties of the cells are
    // affected by MODFLOW parameters.)
    // @param(Param is a MODFLOW parameter that might affect the value of
    // some cells.)
    // @Seealso(TCustomTransientWriter.UpdateTransient2DArray)
    procedure UpdateCellDisplay(CellList: TValueCellList; DataArrayList: TList;
      ParameterIndicies: TByteSet; Param: TModflowTransientListParameter = nil;
      UsedIndicies: TByteSet = []);
    // @name adds spaces to Source until the result is at least as long
    // as ALength.
    function ExpandString(Source: string; ALength: integer): string;
    // @name is used to define parameter clusters for Param.
    //
    // When @name is called, Param must be a parameter for which the clusters
    // need to be identified and LayerCount must be greater than or equal
    // to the maximum number of clusters that could be defined for the
    // parameter.
    //
    // After @name is called:
    // NCLU will be equal to the number of layer
    // clusters needed to be associated with Param.
    //
    // Clusters will be an
    // array with length equal to the LayerCount.  The first NCLU
    // items in Clusters will be the MODFLOW layers for which a cluster
    // will need to be defined.
    //
    // UniformLayers will be an
    // array with length equal to the LayerCount.  The first NCLU
    // items in UniformLayers will indicate whether or not the cluster
    // associated with that layer will be uniform.
    //
    // The remaining items in Clusters and UniformLayers are undefined.
    procedure IdentifyZoneClusters(var NCLU: Integer;
      var Clusters: TOneDIntegerArray; var UniformLayers: TBooleanDynArray;
      LayerCount: Integer; Param: TModflowSteadyParameter);
    Function UcodeObsNameOK(Const AName: string): boolean;
    Function PestObsNameOK(Const AName: string): boolean;
    procedure CheckCell(ValueCell: TValueCell;
      const PackageName: string); virtual;
    procedure RemoveNoDefinedError(var NoDefinedErrorRoot: string); virtual;
    procedure ShowNoBoundaryError(const NoDefinedErrorRoot: string); virtual;
    function AquiferConductance(Layer, Row, Column: Integer): double;
    function AquiferKx(Layer, Row, Column: integer): double;
    // PRINT_INPUT, PRINT_FLOWS, and SAVE_FLOWS
    procedure PrintOutputOptions;
    procedure PrintFlowsOption;
    procedure WriteBeginConnectionData;
    procedure WriteEndConnectionData;
    procedure WriteBoundNamesOption;
    procedure WriteTimeSeriesFiles(InputFileName: string);
    procedure PrintConcentrationOption;
//    procedure WriteGwtlAuxVariables;
  public
    Constructor Create(AModel: TCustomModel; EvaluationType: TEvaluationType); override;
    destructor Destroy; override;
    property MvrWriter: TObject read FMvrWriter write SetMvrWriter;
  end;

  TCustomSolverWriter = class(TCustomPackageWriter)
  public
    class function SolverFileGeneratedExternally(Model: TCustomModel): boolean;
  end;

  TCustomFlowPackageWriter = class(TCustomPackageWriter)
  protected
    // return Kx or transmissivity in X direction
    function XConnection(LayerIndex: Integer): TDataArray; virtual;
    // return Ky or transmissivity in Y direction
    function YConnection(LayerIndex: Integer): TDataArray; virtual;
    // return Kz or conductance in Z direction
    function ZConnection(LayerIndex: Integer): TDataArray; virtual;
    procedure CheckSpecifiedHeadsConnected;
  public
    class function FlowPackageFileGeneratedExternally(Model: TCustomModel): boolean;
  end;

  // @name is used to export input files for MODFLOW for packages with
  // time-varying data.
  TCustomTransientWriter = class(TCustomPackageWriter)
  private
    // After @link(Evaluate) is called,
    // @name contains a series of @link(TValueCellList)s;
    // one for each stress period.
    // Each such list contains series of @link(TValueCell)s. Each
    // @link(TValueCell) defines one boundary cell for one stress period.
    // @name is a TObjectList.
    FValues: TList;
    FFlowObsLocations: TBoundaryFlowObservationLocationList;
    FObsLocationCheck: T3DSparseStringArray;
//    FMf6ObsArray: T3DSparsePointerArray;
    FToMvrFlowObsLocations: TBoundaryFlowObservationLocationList;
    FWellReductionFlowObsLocations: TBoundaryFlowObservationLocationList;
    FDirectObsLines: TStrings;
    FFileNameLines: TStrings;
    FCalculatedObsLines: TStrings;
    function GetOwnsValueContents: Boolean;
    procedure SetOwnsValueContents(const Value: Boolean);
  protected
    MAXBOUND: integer;
    // @name is used for recording the locations of observations for
    // MODFLOW-6 flow observations.
    property FlowObsLocations: TBoundaryFlowObservationLocationList
      read FFlowObsLocations;
    property ToMvrFlowObsLocations: TBoundaryFlowObservationLocationList
      read FToMvrFlowObsLocations;
    property WellReductionFlowObsLocations: TBoundaryFlowObservationLocationList
      read FWellReductionFlowObsLocations;
    // @name is used for recording the locations of observations for
    // MODFLOW-6 flow observations.
    property ObsLocationCheck: T3DSparseStringArray read FObsLocationCheck;
//    property Mf6ObsArray: T3DSparsePointerArray read FMf6ObsArray;
    // @name reads the data from the model and processes it into a form
    // where it can be readily exported to the MODFLOW input file.
    procedure Evaluate; virtual; abstract;
    // @name stores the values at a list of cells.
    property Values: TList read FValues;
    property OwnsValueContents: Boolean read GetOwnsValueContents
      write SetOwnsValueContents;

    {@name updates @link(TModflowBoundaryDisplayDataArray DisplayArray)
    with the contents of List.
    List can either contain @link(TDataArray)s,
    lists of @link(TDataArray)s, or lists of lists of @link(TDataArray)s.
    @Seealso(UpdateCellDisplay)}
    procedure UpdateTransient2DArray(
      DisplayArray: TModflowBoundaryDisplayDataArray; List: TList);

    {@name
    @unorderedList(
      @item(assigns DefaultValue to every location in
      @link(TModflowBoundaryDisplayDataArray DisplayArray),)
      @item(assigns @link(StrNoValueAssigned) to the corresponding annotation,)
      @item(assigns @link(TModflowBoundaryDisplayDataArray.CellCount)
        a value of zero.)
    )}
    procedure InitializeDisplayArray(
      DisplayArray: TModflowBoundaryDisplayDataArray; DefaultValue: Double);

    {@name uses the contents of  List to assign values to
    @link(TModflowBoundaryDisplayDataArray DisplayArray).
     @param(List can either contain @link(TValueCellList)s or
     lists of @link(TValueCellList)s.)
     DefaultValue is the value to be assigned if no member of List has
     a value.
     @param(DataType indicates whether @link(TValueCell.IntegerValue)
     or @link(TValueCell.RealValue) should be accessed.)
     @param(DataTypeIndex indicates which @link(TValueCell.IntegerValue)
     or @link(TValueCell.RealValue) should be accessed.)
     @param(UpdateMethod indicates whether successive values from @link(TValueCell)
     should replace or be added to existing values.)}
    procedure AssignTransient2DArray(
      DisplayArray: TModflowBoundaryDisplayDataArray; DataTypeIndex: Integer;
      List: TList; DefaultValue: double; DataType: TRbwDataType;
      UpdateMethod: TUpdateMethod);
    // @name counts the maximum number of cells used in any stress period. This
    // value is returned in MaximumNumberOfCells.
    procedure CountCells(var MaximumNumberOfCells: integer); virtual;
    procedure GetITMP(var ITMP: integer; TimeIndex: integer;
      var List: TValueCellList); virtual;
    procedure WriteDimensionsMF6;
    // @name indicates that a particular object defines a flow observation
    // in a descendant class.