{
@abstract(@name defines classes for flux observations in MODFLOW.)

The locations of flux observations will be defined by a
list of objects that define a flux of the specified
type (constant-head, general, river, or drain). Each
object will have a formula for the FACTOR for each
flux observation of which it is a part.
If the formula evaluates to zero at any cell, that cell
will not be included in the observation locations for
that observation.  Each observation group will also have
a series of observation times and associated observation
values.  The group will have a name and this name will
be used to assign an observation name at each observation
time.  Only the group names will be editable by the user.

Each object that defines a flux boundary will have a list
of the observations of which it is a part and a formula
to define the FACTOR for each list.

@author(Richard B. Winston <rbwinst@usgs.gov>)
}
unit FluxObservationUnit;

interface

uses SysUtils, Classes, GoPhastTypes, FormulaManagerUnit, ObsInterfaceUnit,
  PestObsGroupUnit, System.Generics.Collections;

type
  TCustomFluxObservationItem = class(TPhastCollectionItem)
  private
    // See @link(Time).
    FTime: double;
    // See @link(ObservedValue).
    FObservedValue: double;
    FComment: string;
    // See @link(Time).
    procedure SetTime(const Value: double);
    // See @link(ObservedValue).
    procedure SetObservedValue(const Value: double);
    procedure SetComment(const Value: string);
 protected
    function GetTime: double;
    function GetObservedValue: double;
    function GetScreenObject: TObject;
    property ScreenObject: TObject read GetScreenObject;
  public
    // If Source is a @classname, @name copies the published properties
    // of @classname from the source.
    procedure Assign(Source: TPersistent); override;
    function ObsNameTimeString: string;
  published
    // @name is the time at which the observation was made.
    property Time: double read GetTime write SetTime;
    // @name is the observed value of flux.  In automated calibration
    // procedures, the observed value is compared with the
    // simulated value to evaluate the quality of the calibration.
    property ObservedValue: double read GetObservedValue write SetObservedValue;
    property Comment: string read FComment write SetComment;
  end;

  TFluxObservationGroup = class;

  // @name represents a single flux observation
  TFluxObservation = class(TCustomFluxObservationItem, IObservationItem,
    ITimeObservationItem)
  private
    FStatFlag: TStatFlag;
    FStatistic: double;
    FGUID: string;
//    FObservationGroup: string;
    procedure SetStatFlag(const Value: TStatFlag);
    procedure SetStatistic(const Value: double);
    function GetObservationGroup: string;
    function GetGUID: string;
    procedure SetGUID(const Value: string);
    function GetFluxGroup: TFluxObservationGroup;
//    procedure SetObservationGroup(const Value: string);
  protected
    function GetName: string;
    function GetExportedName: string;
    function GetWeight: Double;
    function QueryInterface(const IID: TGUID; out Obj): HResult; stdcall;
    function _AddRef: Integer; stdcall;
    function _Release: Integer; stdcall;
    procedure ReplaceGUID;
  public
    // If Source is a @classname, @name copies the published properties
    // of @classname from the source.
    procedure Assign(Source: TPersistent); override;
    function ObservationType: string;
    property FluxGroup: TFluxObservationGroup read GetFluxGroup;
  published
    property Statistic: double read FStatistic write SetStatistic;
    property StatFlag: TStatFlag read FStatFlag write SetStatFlag;
    property ObservationGroup: string read GetObservationGroup;
    property GUID: string read GetGUID write SetGUID;
  end;

  TCustomFluxObservations = class(TPhastCollection)
  public
    // If Source is a @classname, @name copies the contents
    // of @classname from the source.
    procedure Assign(Source: TPersistent); override;
  end;

  {@name is a collection of @link(TFluxObservation)s.}
  TFluxObservations = class(TCustomFluxObservations)
  private
    FFluxObsGroup: TFluxObservationGroup;
    // See @link(Items).
    function GetItems(Index: integer): TFluxObservation;
    // See @link(Items).
    procedure SetItems(Index: integer; const Value: TFluxObservation);
  public
    // If Source is a @classname, @name copies the contents
    // of @classname from the source.
    constructor Create(InvalidateModelEvent: TNotifyEvent;
      FluxObsGroup: TFluxObservationGroup);
    // @name provides read and write access to the @link(TFluxObservation)s
    // stored in @classname.
    property Items[Index: integer]: TFluxObservation read GetItems
      write SetItems; default;
    // @name adds a new @link(TFluxObservation) to the @link(Items).
    function Add: TFluxObservation;
  end;

  // @name stores a @link(TScreenObject) and an asociated
  // factor.  The factor is a formula that determines what
  // proportion of each the flux through each of the flux cells
  // defined by @link(ScreenObject) is part of the flux observation.
  TObservationFactor = class(TPhastCollectionItem)
  private
    // See link(Factor)
    FFactor: TFormulaObject;
    // See link(ObjectName)
    FObjectName: string;
    // See link(ScreenObject)
    FScreenObject: TObject;
    // See link(Factor)
    procedure SetFactor(const Value: string);
    // See link(ObjectName)
    procedure SetObjectName(const Value: string);
    // See link(ScreenObject)
    procedure SetScreenObject(const Value: TObject);
    // See link(ObjectName)
    function GetObjectName: string;
    function GetFactor: string;
  public
    {If Source is a @classname, @name copies the public and published
     properties from Source.}
    procedure Assign(Source: TPersistent); override;
    constructor Create(Collection: TCollection); override;
    destructor Destroy; override;
    // @name sets @link(ScreenObject) to the @link(TScreenObject) indicated by
    // @link(ObjectName)
    procedure Loaded;
    // @name is the @link(TScreenObject) associated with a group of cells
    // in the flux observation.  Setting @name will also cause @link(ObjectName)
    // to be set.
    property ScreenObject: TObject read FScreenObject write SetScreenObject;
  published
    {When being read, @name is the @link(TObserver.Name TScreenObject.Name)
     of the @link(ScreenObject).  However, if @link(ScreenObject)
     is nil, @name returns @link(FObjectName).  Writing ObjectName sets
     @link(FObjectName)}
    property ObjectName: string read GetObjectName write SetObjectName;
    // @name is a formula used to determine what proportion of the flux
    // at a cell will be part of the observation. Typically, Factor will be 1.
    //
    // If Factor is to be displayed on the grid, @link(SetFactor)
    // will have to be changed to respond to changes in what it depends on.
    property Factor: string read GetFactor write SetFactor;
  end;

  // @name is a collection of @link(TObservationFactor)s.
  TObservationFactors = class(TPhastCollection)
  strict private
    { TODO -cRefactor : Consider replacing FModel with a TNotifyEvent or interface. }
    //
    FModel: TBaseModel;
  private
    // See @link(Items).
    function GetItems(Index: integer): TObservationFactor;
    // See @link(Items).
    procedure SetItems(Index: integer; const Value: TObservationFactor);
  public
    // if Source is a @classname, @name copies the contents of Source.
    procedure Assign(Source: TPersistent); override;
    constructor Create(Model: TBaseModel);
    // @name provides access to the @link(TObservationFactor)s in
    // the @classname.
    property Items[Index: integer]: TObservationFactor read GetItems
      write SetItems; default;
    // @name calls @link(TObservationFactor.Loaded)
    // for each @link(TObservationFactor).
    procedure Loaded;
    // @name deletes any items for which the
    // @link(TObservationFactor.ScreenObject)
    // is nil or deleted.
    procedure EliminatedDeletedScreenObjects;
    // @name returns the number of the item whose
    // @link(TObservationFactor.ScreenObject)
    // is ScreenObject.  If none match, @name returns -1.
    function IndexOfScreenObject(ScreenObject: TObject): integer;
    // @name adds a @link(TObservationFactor) to @link(Items).
    function Add: TObservationFactor;
    { TODO -cRefactor : Consider replacing Model with a TNotifyEvent or interface. }
    //
    property Model: TBaseModel read FModel;
    function AddObject(ScreenObject: TObject): integer;
  end;

  TFluxObsType = (fotHead, fotRiver, fotDrain, fotGHB, fotSTR);

  TCustomFluxObservationGroup = class(TPhastCollectionItem)
  private
    // See @link(ObservationName).
    FObservationName: string;
    // See @link(ObservationFactors).
    FObservationFactors: TObservationFactors;
    FPurpose: TObservationPurpose;
    FObservationGroup: string;
    // See @link(ObservationName).
    procedure SetObservationName(Value: string);
    // See @link(ObservationFactors).
    procedure SetObservationFactors(const Value: TObservationFactors);
    procedure SetPurpose(const Value: TObservationPurpose);
  protected
    procedure SetObservationGroup(const Value: string); virtual;
    function GetObservationGroup: string; virtual;
  public
    procedure Assign(Source: TPersistent); override;
    constructor Create(Collection: TCollection); override;
    destructor Destroy; override;
    // @name adds a new @link(TObservationFactor) to @link(ObservationFactors)
    // and makes ScreenObject its @link(TObservationFactor.ScreenObject).
    // If ScreenObject has already been added, it will be skipped.
    function AddObject(ScreenObject: TObject): integer;
    // @name removes the @link(TObservationFactor) from
    // @link(ObservationFactors) that has ScreenObject as its
    // @link(TObservationFactor.ScreenObject).
    procedure RemoveObject(ScreenObject: TObject);
    // @name calls @link(TObservationFactors.Loaded ObservationFactors.Loaded).
    procedure Loaded;
    // @name calls @link(TObservationFactors.EliminatedDeletedScreenObjects
    // ObservationFactors.EliminatedDeletedScreenObjects).
    procedure EliminatedDeletedScreenObjects;
  published
    // @name identifies the group of observations.
    // each group has the same flux cells and the same observation times.
    // @name is used to generate names for each of the observations.
    property ObservationName: string read FObservationName
      write SetObservationName;
    // @name stores the @link(TScreenObject)s that define the
    // flux observation cells and the formula for the factor that
    // specifies how much of the flux from each cell should be included
    // in the observation.
    property ObservationFactors: TObservationFactors read FObservationFactors
      write SetObservationFactors;
    property Purpose: TObservationPurpose read FPurpose write SetPurpose;
    property ObservationGroup: string read GetObservationGroup write SetObservationGroup;
  end;

  // @name defines one group of flux observation.  Each group
  // includes the same flux cells and the same observation times.
  TFluxObservationGroup = class(TCustomFluxObservationGroup)
  private
    // See @link(ObservationTimes).
    FObservationTimes: TFluxObservations;
    FPestObservationGroup: TPestObservationGroup;
    // See @link(ObservationTimes).
    procedure SetObservationTimes(const Value: TFluxObservations);
    procedure SetPestObservationGroup(const Value: TPestObservationGroup);
  protected
    procedure SetObservationGroup(const Value: string); override;
    function GetObservationGroup: string; override;
  public
    // if Source is a @classname, name copies the published
    // properties of Source.
    procedure Assign(Source: TPersistent); override;
    constructor Create(Collection: TCollection); override;
    destructor Destroy; override;
    // @name checks that the observations times are valid.
    // If some are not, a description of the errors will be
    // added to ErrorRoots and ErrorMessages
    procedure CheckObservationTimes(ErrorRoots, ErrorMessages: TStringList);
    function FluxObsType: TFluxObsType;
    property PestObservationGroup: TPestObservationGroup
      read FPestObservationGroup write SetPestObservationGroup;
  published
    // @name stores the observation times and observed fluxes at
    // those times.
    property ObservationTimes: TFluxObservations read FObservationTimes
      write SetObservationTimes;
  end;

  TFluxObservationList = TList<TFluxObservationGroup>;
  TFluxObservationObjectList = TObjectList<TFluxObservationGroup>;


  TCustomFluxObservationGroups = class(TPhastCollection)
  strict private
    { TODO -cRefactor : Consider replacing FModel with a TNotifyEvent or interface. }
    //
    FModel: TBaseModel;
  private
    // See @link(Items).
    function GetItems(Index: integer): TCustomFluxObservationGroup;
    // See @link(Items).
    procedure SetItems(Index: integer; const Value: TCustomFluxObservationGroup);
  public
   // stored in the @classname.
    property Items[Index: integer]: TCustomFluxObservationGroup read GetItems
      write SetItems; default;
    // @name calls @link(TCustomFluxObservationGroups.EliminatedDeletedScreenObjects)
    // for each @link(TCustomFluxObservationGroups) in @link(Items).
    procedure EliminatedDeletedScreenObjects;
    // @name calls @link(TCustomFluxObservationGroups.Loaded)
    // for each @link(TCustomFluxObservationGroups) in @link(Items).
    procedure Loaded;
    // @name deletes Item from @link(Items).
    procedure Remove(Item: TCustomFluxObservationGroup);
    // If Source is a @classname, @name copies the contents of Source.
    procedure Assign(Source: TPersistent); override;
    constructor Create(ItemClass: TCollectionItemClass; Model: TBaseModel);
    { TODO -cRefactor : Consider replacing Model with a TNotifyEvent or interface. }
    //
    property Model: TBaseModel read FModel;
  end;

  // @name is a collection of @link(TFluxObservationGroup)s.
  TFluxObservationGroups = class(TCustomFluxObservationGroups)
  strict private
    { TODO -cRefactor : Consider replacing FModel with a TNotifyEvent or interface. }
    //
    FModel: TBaseModel;
  private
    FFluxObservationType: TFluxObsType;
    // See @link(Items).
    function GetItems(Index: integer): TFluxObservationGroup;
    // See @link(Items).
    procedure SetItems(Index: integer; const Value: TFluxObservationGroup);
  public
    constructor Create(Model: TBaseModel);
   // @name provides read and write access to the @link(TFluxObservationGroup)
   // stored in the @classname.
    property Items[Index: integer]: TFluxObservationGroup read GetItems
      write SetItems; default;
    // @name adds a new @link(TFluxObservationGroup) to @link(Items).
    function Add: TFluxObservationGroup;
    property FluxObservationType: TFluxObsType read FFluxObservationType
      write FFluxObservationType;
    // @name calls @link(TFluxObservationGroup.CheckObservationTimes)
    // for each @link(TFluxObservationGroup) in @link(Items).
    procedure CheckObservationTimes(ErrorRoots, ErrorMessages: TStringList);
    { TODO -cRefactor : Consider replacing Model with a TNotifyEvent or interface. }
    //
    property Model: TBaseModel read FModel;
  end;

implementation

uses
  PhastModelUnit, ScreenObjectUnit, ModflowBoundaryUnit, frmGoPhastUnit,
  Modflow6ObsUnit, ModflowTimeUnit, PestPropertiesUnit, RbwParser;

resourcestring
  StrInvalidObservation = 'Invalid observation time in the %0:s observation: '
    + '"%1:s."';
  Str0gIsNotUsedIn = '%0:g is not used in %1:s in the %2:s package';
  StrInvalidObjectsIncl = 'Invalid objects included in the %0:s observation' +
  ' "%1:s."';
  StrThe0sPackageIs = 'The %0:s  package is not used in %1:s.';
  Str0gIsNotBetween = '%0:g is not between the starting and ending times of ' +
  'the model in %1:s in the %2:s package';

{ TObservationGroup }

procedure TFluxObservationGroup.Assign(Source: TPersistent);
var
  SourceItem: TFluxObservationGroup;
begin
  if Source is TFluxObservationGroup then
  begin
    SourceItem := TFluxObservationGroup(Source);
    ObservationTimes := SourceItem.ObservationTimes;
  end;
  inherited;
end;

procedure TFluxObservationGroup.CheckObservationTimes(ErrorRoots,
  ErrorMessages: TStringList);
var
  TimeIndex: Integer;
  Time: double;
  ObjectIndex: Integer;
  ScreenObject: TScreenObject;
  Boundary: TModflowParamBoundary;
  BoundaryPackageID: string;
  PackageID: string;
  ErrorMessage: string;
  ErrorRoot: string;
  OK_ObsType: Boolean;
  ModelSelection: TModelSelection;
  StressPeriods: TModflowStressPeriods;
  StartTime: Double;
  EndTime: Double;
  function TimeUsedInBoundary(Time: double; Boundary:TModflowParamBoundary): boolean;
  var
    Item: TCustomModflowBoundaryItem;
    ParamIndex: Integer;
    Param: TModflowParamItem;
    ItemIndex: Integer;
  begin
    result := False;
    for ItemIndex := 0 to Boundary.Values.Count - 1 do
    begin
      Item := Boundary.Values[ItemIndex] as TCustomModflowBoundaryItem;
      result := (Item.StartTime <= Time) and (Time <= Item.EndTime);
      if result then Exit;
    end;
    for ParamIndex := 0 to Boundary.Parameters.Count - 1 do
    begin
      Param := Boundary.Parameters[ParamIndex];
      for ItemIndex := 0 to Param.Param.Count - 1 do
      begin
        Item := Param.Param.Items[ItemIndex] as TCustomModflowBoundaryItem;
        result := (Item.StartTime <= Time) and (Time <= Item.EndTime);
        if result then Exit;
      end;
    end;
  end;
begin
  ModelSelection := frmGoPhast.ModelSelection;
  StressPeriods := frmGoPhast.PhastModel.ModflowStressPeriods;
  if StressPeriods.Count = 0 then
  begin
    Exit;
  end;
  StartTime := StressPeriods.First.StartTime;
  EndTime := StressPeriods.Last.EndTime;
  for ObjectIndex := 0 to ObservationFactors.Count - 1 do
  begin
    ScreenObject :=
      ObservationFactors[ObjectIndex].ScreenObject as TScreenObject;
    Boundary := nil;
    OK_ObsType := False;
    case FluxObsType of
      fotHead:
        begin
          Boundary := ScreenObject.ModflowChdBoundary;
          BoundaryPackageID := 'CHD';
          PackageID := 'CHOB';
          if (ModelSelection= msModflow2015)
            and (ScreenObject.Modflow6Obs <> nil)
            and (ogCHD in ScreenObject.Modflow6Obs.General) then
          begin
            OK_ObsType := True;
          end;
        end;
      fotRiver:
        begin
          Boundary := ScreenObject.ModflowRivBoundary;
          BoundaryPackageID := 'RIV';
          PackageID := 'RVOB';
          if (ModelSelection= msModflow2015)
            and (ScreenObject.Modflow6Obs <> nil)
            and (ogRiv in ScreenObject.Modflow6Obs.General) then
          begin
            OK_ObsType := True;
          end;
        end;
      fotDrain:
        begin
          Boundary := ScreenObject.ModflowDrnBoundary;
          BoundaryPackageID := 'DRN';
          PackageID := 'DROB';
          if (ModelSelection= msModflow2015)
            and (ScreenObject.Modflow6Obs <> nil)
            and (ogDrain in ScreenObject.Modflow6Obs.General) then
          begin
            OK_ObsType := True;
          end;
        end;
      fotGHB:
        begin
          Boundary := ScreenObject.ModflowGhbBoundary;
          BoundaryPackageID := 'GHB';
          PackageID := 'GBOB';
          if (ModelSelection= msModflow2015)
            and (ScreenObject.Modflow6Obs <> nil)
            and (ogGHB in ScreenObject.Modflow6Obs.General) then
          begin
            OK_ObsType := True;
          end;
        end;
      fotSTR:
        begin
          Boundary := ScreenObject.ModflowStrBoundary;
          BoundaryPackageID := 'STR';
          PackageID := 'STOB';
        end;
      else Assert(False);
    end;
    if ((Boundary <> nil) and Boundary.Used) or OK_ObsType then
    begin
      for TimeIndex := 0 to ObservationTimes.Count - 1 do
      begin
        Time := ObservationTimes[TimeIndex].Time;
        if Boundary = nil then
        begin
          if (Time < StartTime) or (Time > EndTime) then
          begin
            ErrorRoot := Format(StrInvalidObservation,
              [PackageID, ObservationName]);
            ErrorMessage := Format(Str0gIsNotBetween,
              [Time, ScreenObject.Name, BoundaryPackageID]);
            ErrorRoots.Add(ErrorRoot);
            ErrorMessages.AddObject(ErrorMessage, ScreenObject);
          end;
        end
        else
        begin
          if not TimeUsedInBoundary(Time, Boundary) then
          begin
            ErrorRoot := Format(StrInvalidObservation,
              [PackageID, ObservationName]);
            ErrorMessage := Format(Str0gIsNotUsedIn,
              [Time, ScreenObject.Name, BoundaryPackageID]);
            ErrorRoots.Add(ErrorRoot);
            ErrorMessages.AddObject(ErrorMessage, ScreenObject);
          end;
        end;
      end;
    end
    else
    begin
      ErrorRoot := Format(StrInvalidObjectsIncl, [PackageID, ObservationName]);
      ErrorMessage := Format(StrThe0sPackageIs,
        [BoundaryPackageID, ScreenObject.Name]);
      ErrorRoots.Add(ErrorRoot);
      ErrorMessages.AddObject(ErrorMessage, ScreenObject);
    end;
  end;
end;

constructor TFluxObservationGroup.Create(Collection: TCollection);
begin
  inherited;
  FObservationTimes := TFluxObservations.Create(OnInvalidateModel, self);
//    (Collection as TCustomFluxObservationGroups).Model);
end;

destructor TFluxObservationGroup.Destroy;
begin
  FObservationTimes.Free;
  inherited;
end;

function TFluxObservationGroup.FluxObsType: TFluxObsType;
begin
  result := (Collection as TFluxObservationGroups).FluxObservationType;
end;

function TFluxObservationGroup.GetObservationGroup: string;
begin
  if FPestObservationGroup <> nil then
  begin
    result := FPestObservationGroup.ObsGroupName;
  end
  else
  begin
    result := inherited;
  end;
end;

procedure TFluxObservationGroup.SetObservationGroup(const Value: string);
var
  PestProperties: TPestProperties;
begin
  inherited;
  PestProperties := frmGoPhast.PhastModel.PestProperties;
  PestObservationGroup := PestProperties.ObservationGroups.GetObsGroupByName(Value);
end;

procedure TFluxObservationGroup.SetObservationTimes(
  const Value: TFluxObservations);
begin
  FObservationTimes.Assign(Value);
end;

procedure TFluxObservationGroup.SetPestObservationGroup(
  const Value: TPestObservationGroup);
begin
  FPestObservationGroup := Value;
  if FPestObservationGroup <> nil then
  begin
    inherited SetObservationGroup(FPestObservationGroup.ObsGroupName);
  end;
end;

{ TFluxObservation }

procedure TFluxObservation.Assign(Source: TPersistent);
var
  SourceItem: TFluxObservation;
begin
  if Source is TFluxObservation then
  begin
    SourceItem := TFluxObservation(Source);
    Statistic := SourceItem.Statistic;
    StatFlag := SourceItem.StatFlag;
    GUID := SourceItem.GUID;
  end;
  inherited;
end;

function TFluxObservation.GetExportedName: string;
begin
  result := GetName;
end;

function TFluxObservation.GetFluxGroup: TFluxObservationGroup;
begin
  if Collection = nil then
  begin
    result := nil;
    Exit;
  end;
  result := (Collection as TFluxObservations).FFluxObsGroup;
end;

function TFluxObservation.GetGUID: string;
var
  MyGuid : TGUID;
begin
  if (FGUID = '') and (CreateGUID(MyGuid) = 0) then
  begin
    FGUID := GUIDToString(MyGuid);
  end;
  result := FGUID;
end;

function TFluxObservation.GetName: string;
var
  FluxCollection: TFluxObservations;
begin
  result := '';
  if Collection is TFluxObservations then
  begin
    FluxCollection := TFluxObservations(Collection);
    result := FluxCollection.FFluxObsGroup.ObservationName
      + '_' + ObsNameTimeString;
  end;
end;

function TFluxObservation.GetObservationGroup: string;
var
  FluxCollection: TFluxObservations;
begin
  result := '';
  if Collection is TFluxObservations then
  begin
    FluxCollection := TFluxObservations(Collection);
    result := FluxCollection.FFluxObsGroup.ObservationGroup;
  end;
end;

function TFluxObservation.GetWeight: Double;
begin
  result := 0;
  case StatFlag of
    stVariance:
      begin
        if Statistic <> 0 then
        begin
          result := 1/Statistic;
        end;
      end;
    stStandardDev:
      begin
        if Statistic <> 0 then
        begin
          result := 1/Sqr(Statistic);
        end;
      end;
    stCoefVar:
      begin
        if ObservedValue <> 0 then
        begin
          result := Sqr(Statistic/ObservedValue);
        end;
        // Coefficient of variation = mean/standard deviation
        // SD := ObservedValue/Statistic;
        //result :=  1/Sqr(ObservedValue/Statistic);
      end;
    stWeight:
      begin
        result := Statistic;
      end;
    stSquaredWeight:
      begin
        result := Sqrt(Statistic);
      end;
  end;
end;

function TFluxObservation.ObservationType: string;
begin
  result := 'Flow';
end;

function TFluxObservation.QueryInterface(const IID: TGUID; out Obj): HResult;
const
  E_NOINTERFACE = HRESULT($80004002);
begin
  if GetInterface(IID, Obj) then
    result := 0
  else
    result := E_NOINTERFACE;
end;

procedure TFluxObservation.ReplaceGUID;
var
  MyGuid: TGUID;
begin
  if CreateGUID(MyGuid) = 0 then
  begin
    FGUID := GUIDToString(MyGuid);
  end;
end;

//procedure TFluxObservation.SetObservationGroup(const Value: string);
//begin
//  FObservationGroup := Value;
//end;

procedure TFluxObservation.SetGUID(const Value: string);
begin
  FGUID := Value;
end;

procedure TFluxObservation.SetStatFlag(const Value: TStatFlag);
begin
  if FStatFlag <> Value then
  begin
    InvalidateModel;
    FStatFlag := Value;
  end;
end;

procedure TFluxObservation.SetStatistic(const Value: double);
begin
  if FStatistic <> Value then
  begin
    InvalidateModel;
    FStatistic := Value;
  end;
end;
function TFluxObservation._AddRef: Integer;
begin
  result := -1;
end;

function TFluxObservation._Release: Integer;
begin
  result := -1;
end;

{ TFluxObservations }

function TFluxObservations.Add: TFluxObservation;
begin
  result := inherited Add as TFluxObservation;
end;

constructor TFluxObservations.Create(InvalidateModelEvent: TNotifyEvent;
  FluxObsGroup: TFluxObservationGroup);
begin
  FFluxObsGroup := FluxObsGroup;
  inherited Create(TFluxObservation, InvalidateModelEvent);
end;

function TFluxObservations.GetItems(Index: integer): TFluxObservation;
begin
  result := inherited Items[Index] as TFluxObservation
end;

procedure TFluxObservations.SetItems(Index: integer;
  const Value: TFluxObservation);
begin
  inherited Items[Index] := Value;
end;

{ TFluxObservationGroups }

function TFluxObservationGroups.Add: TFluxObservationGroup;
begin
  result := inherited Add as TFluxObservationGroup;
end;

constructor TFluxObservationGroups.Create(Model: TBaseModel);
var
  InvalidateModelEvent: TNotifyEvent;
begin
  FModel := Model;
  if Model = nil then
  begin
    InvalidateModelEvent := nil;
  end
  else
  begin
    InvalidateModelEvent := Model.DoInvalidate;
  end;
  inherited Create(TFluxObservationGroup, Model);
end;

function TFluxObservationGroups.GetItems(Index: integer): TFluxObservationGroup;
begin
  result := inherited Items[Index] as TFluxObservationGroup;
end;

procedure TFluxObservationGroups.SetItems(Index: integer;
  const Value: TFluxObservationGroup);
begin
  inherited Items[Index] := Value;
end;

{ TObservationFactor }

procedure TObservationFactor.Assign(Source: TPersistent);
var
  SourceObs: TObservationFactor;
begin
  if Source is TObservationFactor then
  begin
    SourceObs := TObservationFactor(Source);
    Factor := SourceObs.Factor;
    ScreenObject := SourceObs.ScreenObject;
    ObjectName := SourceObs.ObjectName;
  end
  else
  begin
    inherited;
  end;
end;

constructor TObservationFactor.Create(Collection: TCollection);
begin
  inherited;
  FFactor := frmGoPhast.PhastModel.FormulaManager.Add;
  FFactor.Parser := frmGoPhast.PhastModel.rpThreeDFormulaCompiler;
  frmGoPhast.PhastModel.FormulaManager.ChangeFormula(
    FFactor, '1.', frmGoPhast.PhastModel.rpThreeDFormulaCompiler,
    nil, nil, self);
end;

destructor TObservationFactor.Destroy;
begin
  if frmGoPhast.PhastModel <> nil then
  begin
    frmGoPhast.PhastModel.FormulaManager.Remove(FFactor, nil, nil, self);
  end;
  inherited;
end;

function TObservationFactor.GetFactor: string;
begin
  result := FFactor.Formula;
end;

function TObservationFactor.GetObjectName: string;
begin
  if ScreenObject = nil then
  begin
    result := FObjectName;
  end
  else
  begin
    result := TScreenObject(ScreenObject).Name;
  end;
end;

procedure TObservationFactor.Loaded;
begin
  ScreenObject := ((Collection as TObservationFactors).Model as TCustomModel).
    GetScreenObjectByName(ObjectName);
//  Assert(ScreenObject <> nil);
end;

procedure TObservationFactor.SetFactor(const Value: string);
var
  Compiler: TRbwParser;
begin
  if FFactor.Formula <> Value then
  begin
    InvalidateModel;
    Compiler := nil;
    if ScreenObject <> nil then
    begin
      if (ScreenObject as TScreenObject).EvaluatedAt = eaBlocks then
      begin
        Compiler := frmGoPhast.PhastModel.rpThreeDFormulaCompiler;
      end
      else
      begin
        Compiler := frmGoPhast.PhastModel.rpThreeDFormulaCompilerNodes;
      end;
    end
    else if frmGoPhast.ModelSelection in ModflowSelection then
    begin
      Compiler := frmGoPhast.PhastModel.rpThreeDFormulaCompiler;
    end
    else if frmGoPhast.ModelSelection in SutraSelection then
    begin
      Compiler := frmGoPhast.PhastModel.rpThreeDFormulaCompilerNodes;
    end;
    // if ModelSelection is msUnknown, it is OK for the Compiler to be nil.
    frmGoPhast.PhastModel.FormulaManager.ChangeFormula(
      FFactor, Value, Compiler,
      nil, nil, self);
  end;
end;

procedure TObservationFactor.SetObjectName(const Value: string);
begin
  if FObjectName <> Value then
  begin