inherited frmDisplayData: TfrmDisplayData
  HelpType = htKeyword
  HelpKeyword = 'Data_Visualization_Dialog_Box'
  Caption = 'Data Visualization'
  ClientHeight = 562
  ClientWidth = 778
  ExplicitWidth = 790
  ExplicitHeight = 600
  TextHeight = 18
  object splSplit: TSplitter
    Left = 201
    Top = 0
    Width = 5
    Height = 521
    ExplicitLeft = 178
    ExplicitHeight = 420
  end
  object pglstMain: TJvPageList
    Left = 206
    Top = 0
    Width = 572
    Height = 521
    ActivePage = jvspPestObsResults
    PropagateEnable = False
    Align = alClient
    OnChange = pglstMainChange
    object jvspModpathPathline: TJvStandardPage
      Left = 0
      Top = 0
      Width = 572
      Height = 521
      HelpType = htKeyword
      HelpKeyword = 'MODPATH_Display_Dialog_Box'
      Caption = 'jvspModpathPathline'
      inline frameModpathDisplay: TframeModpathDisplay
        Left = 0
        Top = 0
        Width = 572
        Height = 521
        Align = alClient
        TabOrder = 0
        ExplicitWidth = 572
        ExplicitHeight = 521
        inherited pcMain: TPageControl
          Width = 572
          Height = 521
          ExplicitWidth = 572
          ExplicitHeight = 521
          inherited tabBasic: TTabSheet
            ExplicitTop = 29
            ExplicitWidth = 564
            ExplicitHeight = 488
            DesignSize = (
              564
              488)
            inherited lblModpathFile: TLabel
              Width = 159
              Height = 18
              ExplicitWidth = 159
              ExplicitHeight = 18
            end
            inherited lblColorScheme: TLabel
              Width = 97
              Height = 18
              ExplicitWidth = 97
              ExplicitHeight = 18
            end
            inherited pbColorScheme: TPaintBox
              Top = 172
              Width = 497
              ExplicitTop = 172
              ExplicitWidth = 517
            end
            inherited lblColorAdjustment: TLabel
              Top = 216
              Width = 117
              Height = 18
              ExplicitTop = 216
              ExplicitWidth = 117
              ExplicitHeight = 18
            end
            inherited lblCycles: TLabel
              Left = 402
              Top = 222
              Width = 47
              Height = 18
              ExplicitLeft = 422
              ExplicitTop = 222
              ExplicitWidth = 47
              ExplicitHeight = 18
            end
            inherited lblMaxTime: TLabel
              Width = 78
              Height = 18
              ExplicitWidth = 78
              ExplicitHeight = 18
            end
            inherited lblModelSelection: TLabel
              Top = 278
              Width = 109
              Height = 18
              ExplicitTop = 278
              ExplicitWidth = 109
              ExplicitHeight = 18
            end
            inherited fedModpathFile: TJvFilenameEdit
              Width = 497
              Height = 26
              ExplicitWidth = 501
              ExplicitHeight = 26
            end
            inherited comboColorScheme: TComboBox
              Width = 351
              Height = 26
              ExplicitWidth = 351
              ExplicitHeight = 26
            end
            inherited jsColorExponent: TJvxSlider
              Top = 232
            end
            inherited seColorExponent: TJvSpinEdit
              Top = 246
              Height = 26
              ExplicitTop = 246
              ExplicitHeight = 26
            end
            inherited seCycles: TJvSpinEdit
              Left = 402
              Top = 246
              Height = 26
              ExplicitLeft = 406
              ExplicitTop = 246
              ExplicitHeight = 26
            end
            inherited comboModelSelection: TComboBox
              Top = 297
              Height = 26
              ExplicitTop = 297
              ExplicitHeight = 26
            end
            inherited btnColorSchemes: TButton
              Left = 365
              Top = 120
              Width = 140
              Anchors = [akTop, akRight]
              OnClick = frameModpathDisplaybtnColorSchemesClick
              ExplicitLeft = 369
              ExplicitTop = 120
              ExplicitWidth = 140
            end
          end
          inherited tabOptions: TTabSheet
            ExplicitTop = 29
            ExplicitHeight = 453
            DesignSize = (
              457
              453)
            inherited rgShow2D: TRadioGroup
              Width = 550
              Items.Strings = (
                'Show all'
                'Specify columns, rows, layers, times and/or groups to show'
                
                  'Specify starting columns, rows, layers, times and/or groups to s' +
                  'how'
                
                  'Specify ending columns, rows, layers, times and/or groups to sho' +
                  'w')
              ExplicitWidth = 550
            end
            inherited rdgLimits: TRbwDataGrid4
              Width = 407
              ExplicitWidth = 407
              ColWidths = (
                64
                64
                64)
              RowHeights = (
                24
                24
                24
                24
                24
                24)
            end
          end
        end
      end
    end
    object jvspSfrStreamLinks: TJvStandardPage
      Left = 0
      Top = 0
      Width = 572
      Height = 521
      HelpType = htKeyword
      HelpKeyword = 'Stream_Links_Pane'
      Caption = 'jvspSfrStreamLinks'
      inline frameSfrStreamLink: TframeStreamLink
        Left = 0
        Top = 0
        Width = 572
        Height = 521
        Align = alClient
        TabOrder = 0
        ExplicitWidth = 572
        ExplicitHeight = 521
        inherited shpStreamColor: TShape
          Top = 4
          ExplicitTop = 4
        end
        inherited shpDiversionColor: TShape
          Top = 35
          ExplicitTop = 35
        end
        inherited lblTimeToPlot: TLabel
          Width = 84
          Height = 18
          ExplicitWidth = 84
          ExplicitHeight = 18
        end
        inherited shpUnconnectedColor: TShape
          Top = 66
          ExplicitTop = 66
        end
        inherited lblSquareSize: TLabel
          Width = 140
          Height = 18
          ExplicitWidth = 140
          ExplicitHeight = 18
        end
        inherited btnStreamColor: TButton
          Top = 4
          ExplicitTop = 4
        end
        inherited btnDiversionColor: TButton
          Top = 35
          ExplicitTop = 35
        end
        inherited rgItemsToPlot: TRadioGroup
          Height = 112
          ExplicitHeight = 112
        end
        inherited cbStreams: TCheckBox
          Width = 150
          ExplicitWidth = 150
        end
        inherited cbPlotDiversions: TCheckBox
          Width = 166
          ExplicitWidth = 166
        end
        inherited comboTimeToPlot: TJvComboBox
          Height = 26
          ExplicitHeight = 26
        end
        inherited cbPlotUnconnected: TCheckBox
          Width = 222
          ExplicitWidth = 222
        end
        inherited btnUnconnectedColor: TButton
          Top = 66
          ExplicitTop = 66
        end
        inherited seSquareSize: TJvSpinEdit
          Height = 26
          ExplicitHeight = 26
        end
        inherited dlgLinkColor: TColorDialog
          Left = 208
        end
      end
    end
    object jvspHeadObsResults: TJvStandardPage
      Left = 0
      Top = 0
      Width = 572
      Height = 521
      HelpType = htKeyword
      HelpKeyword = 'Head_Observation_Results'
      Caption = 'jvspHeadObsResults'
      inline frameHeadObservationResults: TframeHeadObservationResults
        Left = 0
        Top = 0
        Width = 572
        Height = 521
        Align = alClient
        TabOrder = 0
        ExplicitWidth = 572
        ExplicitHeight = 521
        inherited pgcHeadObs: TPageControl
          Width = 572
          Height = 485
          ExplicitWidth = 572
          ExplicitHeight = 485
          inherited tabControls: TTabSheet
            ExplicitTop = 29
            ExplicitWidth = 564
            ExplicitHeight = 452
            inherited lblNegativeColor: TLabel
              Width = 190
              Height = 36
              ExplicitWidth = 190
              ExplicitHeight = 36
            end
            inherited lblColorPositive: TLabel
              Width = 185
              Height = 36
              ExplicitWidth = 185
              ExplicitHeight = 36
            end
            inherited lblMaxSymbolSize: TLabel
              Top = 351
              Width = 206
              Height = 18
              ExplicitTop = 351
              ExplicitWidth = 206
              ExplicitHeight = 18
            end
            inherited lblHeadObsResults: TLabel
              Width = 69
              Height = 18
              ExplicitWidth = 69
              ExplicitHeight = 18
            end
            inherited flnmedHeadObsResults: TJvFilenameEdit
              Height = 26
              ExplicitHeight = 26
            end
            inherited grpbxFilter: TGroupBox
              inherited lblMaximumTime: TLabel
                Width = 101
                Height = 18
                ExplicitWidth = 101
                ExplicitHeight = 18
              end
              inherited lblMaxResidual: TLabel
                Width = 126
                Height = 18
                ExplicitWidth = 126
                ExplicitHeight = 18
              end
              inherited lblMinimumTime: TLabel
                Width = 97
                Height = 18
                ExplicitWidth = 97
                ExplicitHeight = 18
              end
              inherited lblMinResidual: TLabel
                Width = 122
                Height = 18
                ExplicitWidth = 122
                ExplicitHeight = 18
              end
              inherited lblMinLayer: TLabel
                Width = 100
                Height = 18
                ExplicitWidth = 100
                ExplicitHeight = 18
              end
              inherited lblMaxLayer: TLabel
                Width = 104
                Height = 18
                ExplicitWidth = 104
                ExplicitHeight = 18
              end
              inherited framelmtMinimumTime: TframeDisplayLimit
                inherited comboBoolLimit: TComboBox
                  Height = 26
                  ExplicitHeight = 26
                end
              end
              inherited framelmtMaxResidual: TframeDisplayLimit
                inherited comboBoolLimit: TComboBox
                  Height = 26
                  ExplicitHeight = 26
                end
              end
              inherited framelmtMaximumTime: TframeDisplayLimit
                inherited comboBoolLimit: TComboBox
                  Height = 26
                  ExplicitHeight = 26
                end
              end
              inherited framelmtMinResidual: TframeDisplayLimit
                inherited comboBoolLimit: TComboBox
                  Height = 26
                  ExplicitHeight = 26
                end
              end
              inherited framelmtMinLayer: TframeDisplayLimit
                inherited comboBoolLimit: TComboBox
                  Height = 26
                  ExplicitHeight = 26
                end
              end
              inherited framelmtMaxLayer: TframeDisplayLimit
                inherited comboBoolLimit: TComboBox
                  Height = 26
                  ExplicitHeight = 26
                end
              end
            end
            inherited clrbtnNegative: TJvColorButton
              Top = 321
              ExplicitTop = 321
            end
            inherited clrbtnPositive: TJvColorButton
              Top = 321
              ExplicitTop = 321
            end
            inherited spinSymbolSize: TJvSpinEdit
              Top = 348
              Height = 26
              ExplicitTop = 348
              ExplicitHeight = 26
            end
          end
          inherited tabValues: TTabSheet
            ExplicitTop = 29
            ExplicitHeight = 399
            inherited rdgHeadObs: TRbwDataGrid4
              Height = 334
              ExplicitHeight = 334
              ColWidths = (
                64
                64
                64
                64
                64
                64
                64
                64)
              RowHeights = (
                24
                24
                24
                24
                24)
            end
            inherited pnlValueControls: TPanel
              Top = 334
              ExplicitTop = 334
              inherited btnCopy: TButton
                Left = 151
                Width = 146
                ExplicitLeft = 151
                ExplicitWidth = 146
              end
              inherited btnHightlightObjects: TButton
                Top = 2
                Width = 141
                Height = 55
                ExplicitTop = 2
                ExplicitWidth = 141
                ExplicitHeight = 55
              end
              inherited btnRestore: TButton
                Left = 151
                Top = 2
                Width = 146
                ExplicitLeft = 151
                ExplicitTop = 2
                ExplicitWidth = 146
              end
            end
          end
          inherited tabLegend: TTabSheet
            ExplicitTop = 29
            ExplicitHeight = 399
            inherited lblMax: TLabel
              Width = 44
              Height = 18
              ExplicitWidth = 44
              ExplicitHeight = 18
            end
            inherited lblHalfMax: TLabel
              Width = 71
              Height = 18
              ExplicitWidth = 71
              ExplicitHeight = 18
            end
          end
          inherited tabGraph: TTabSheet
            ExplicitTop = 29
            ExplicitHeight = 399
            inherited pbHeadObs: TPaintBox
              Height = 318
              ExplicitWidth = 570
              ExplicitHeight = 403
            end
            inherited pnlGraphControls: TPanel
              Top = 318
              ExplicitTop = 318
              inherited lblGraphInstructions: TLabel
                Width = 73
                Height = 54
                Anchors = [akLeft, akTop, akRight]
                ExplicitWidth = 73
                ExplicitHeight = 54
              end
            end
          end
        end
        inherited pnlBottom: TPanel
          Top = 485
          Width = 572
          ExplicitTop = 485
          ExplicitWidth = 572
          inherited lblRMS: TLabel
            Width = 222
            Height = 18
            ExplicitWidth = 222
            ExplicitHeight = 18
          end
          inherited comboModels: TComboBox
            Top = 4
            Height = 26
            ExplicitTop = 4
            ExplicitHeight = 26
          end
        end
      end
    end
    object jvspModpathTimeSeries: TJvStandardPage
      Left = 0
      Top = 0
      Width = 572
      Height = 521
      HelpType = htKeyword
      HelpKeyword = 'MODPATH_Time_Series_Display'
      Caption = 'jvspModpathTimeSeries'
      inline frameModpathTimeSeriesDisplay: TframeModpathTimeSeriesDisplay
        Left = 0
        Top = 0
        Width = 572
        Height = 521
        Align = alClient
        TabOrder = 0
        ExplicitWidth = 572
        ExplicitHeight = 521
        inherited pcMain: TPageControl
          Width = 572
          Height = 521
          ExplicitWidth = 572
          ExplicitHeight = 521
          inherited tabBasic: TTabSheet
            ExplicitTop = 29
            ExplicitWidth = 564
            ExplicitHeight = 488
            DesignSize = (
              564
              488)
            inherited lblModpathFile: TLabel
              Width = 182
              Height = 18
              ExplicitWidth = 182
              ExplicitHeight = 18
            end
            inherited lblTimeToPlot: TLabel
              Width = 80
              Height = 18
              ExplicitWidth = 80
              ExplicitHeight = 18
            end
            inherited lblColorScheme: TLabel
              Width = 97
              Height = 18
              ExplicitWidth = 97
              ExplicitHeight = 18
            end
            inherited pbColorScheme: TPaintBox
              Width = 492
              ExplicitWidth = 545
            end
            inherited lblColorAdjustment: TLabel
              Width = 117
              Height = 18
              ExplicitWidth = 117
              ExplicitHeight = 18
            end
            inherited lblCycles: TLabel
              Left = 297
              Width = 47
              Height = 18
              ExplicitLeft = 317
              ExplicitWidth = 47
              ExplicitHeight = 18
            end
            inherited lblModelSelection: TLabel
              Width = 109
              Height = 18
              ExplicitWidth = 109
              ExplicitHeight = 18
            end
            inherited lbltimeSeriesSize: TLabel
              Left = 297
              Width = 167
              Height = 18
              ExplicitLeft = 317
              ExplicitWidth = 167
              ExplicitHeight = 18
            end
            inherited fedModpathFile: TJvFilenameEdit
              Top = 32
              Width = 492
              Height = 26
              ExplicitTop = 32
              ExplicitWidth = 492
              ExplicitHeight = 26
            end
            inherited comboTimeToPlot: TComboBox
              Height = 26
              ExplicitHeight = 26
            end
            inherited comboColorScheme: TComboBox
              Left = 2
              Top = 190
              Width = 368
              Height = 26
              ExplicitLeft = 2
              ExplicitTop = 190
              ExplicitWidth = 368
              ExplicitHeight = 26
            end
            inherited seColorExponent: TJvSpinEdit
              Height = 26
              ExplicitHeight = 26
            end
            inherited seCycles: TJvSpinEdit
              Left = 297
              Height = 26
              ExplicitLeft = 297
              ExplicitHeight = 26
            end
            inherited comboModelSelection: TComboBox
              Height = 26
              ExplicitHeight = 26
            end
            inherited setimeSeriesSize: TJvSpinEdit
              Left = 297
              Height = 26
              ExplicitLeft = 297
              ExplicitHeight = 26
            end
            inherited btnColorSchemes: TButton
              Left = 376
              Top = 178
              Width = 128
              Anchors = [akTop, akRight]
              OnClick = frameModpathTimeSeriesDisplaybtnColorSchemesClick
              ExplicitLeft = 376
              ExplicitTop = 178
              ExplicitWidth = 128
            end
          end
          inherited tabOptions: TTabSheet
            ExplicitTop = 29
            ExplicitHeight = 454
            DesignSize = (
              457
              454)
            inherited rgShow2D: TRadioGroup
              Width = 551
              ExplicitWidth = 551
            end
            inherited rdgLimits: TRbwDataGrid4
              Width = 737
              Height = 354
              Anchors = [akLeft, akTop, akRight, akBottom]
              ExplicitWidth = 737
              ExplicitHeight = 354
              ColWidths = (
                64
                64
                64)
              RowHeights = (
                24
                24
                24
                24
                24
                24)
            end
          end
        end
      end
    end
    object jvspModpathEndpoints: TJvStandardPage
      Left = 0
      Top = 0
      Width = 572
      Height = 521
      HelpType = htKeyword
      HelpKeyword = 'MODPATH_Endpoint_Display'
      Caption = 'jvspModpathEndpoints'
      inline frameModpathEndpointDisplay1: TframeModpathEndpointDisplay
        Left = 0
        Top = 0
        Width = 572
        Height = 521
        Align = alClient
        TabOrder = 0
        ExplicitWidth = 572
        ExplicitHeight = 521
        inherited pcMain: TPageControl
          Width = 572
          Height = 521
          ExplicitWidth = 572
          ExplicitHeight = 521
          inherited tabBasic: TTabSheet
            ExplicitTop = 29
            ExplicitWidth = 564
            ExplicitHeight = 488
            DesignSize = (
              564
              488)
            inherited lblModpathFile: TLabel
              Width = 165
              Height = 18
              ExplicitWidth = 165
              ExplicitHeight = 18
            end
            inherited lblColorScheme: TLabel
              Width = 97
              Height = 18
              ExplicitWidth = 97
              ExplicitHeight = 18
            end
            inherited pbColorScheme: TPaintBox
              Width = 500
              ExplicitWidth = 556
            end
            inherited lblColorAdjustment: TLabel
              Width = 117
              Height = 18
              ExplicitWidth = 117
              ExplicitHeight = 18
            end
            inherited lblCycles: TLabel
              Left = 329
              Width = 47
              Height = 18
              ExplicitLeft = 349
              ExplicitWidth = 47
              ExplicitHeight = 18
            end
            inherited lblModelSelection: TLabel
              Width = 109
              Height = 18
              ExplicitWidth = 109
              ExplicitHeight = 18
            end
            inherited lblEndPointSize: TLabel
              Left = 329
              Width = 148
              Height = 18
              ExplicitLeft = 349
              ExplicitWidth = 148
              ExplicitHeight = 18
            end
            inherited fedModpathFile: TJvFilenameEdit
              Top = 30
              Width = 500
              Height = 26
              ExplicitTop = 30
              ExplicitWidth = 504
              ExplicitHeight = 26
            end
            inherited comboColorScheme: TComboBox
              Width = 353
              Height = 26
              ExplicitWidth = 353
              ExplicitHeight = 26
            end
            inherited seColorExponent: TJvSpinEdit
              Top = 235
              Height = 26
              ExplicitTop = 235
              ExplicitHeight = 26
            end
            inherited seCycles: TJvSpinEdit
              Left = 329
              Top = 235
              Width = 84
              Height = 26
              ExplicitLeft = 333
              ExplicitTop = 235
              ExplicitWidth = 84
              ExplicitHeight = 26
            end
            inherited comboModelSelection: TComboBox
              Left = 2
              Top = 297
              Height = 26
              TabOrder = 8
              ExplicitLeft = 2
              ExplicitTop = 297
              ExplicitHeight = 26
            end
            inherited seEndPointSize: TJvSpinEdit
              Left = 329
              Top = 297
              Height = 26
              TabOrder = 7
              ExplicitLeft = 333
              ExplicitTop = 297
              ExplicitHeight = 26
            end
            inherited btnColorSchemes: TButton
              Left = 367
              Top = 120
              Width = 138
              Anchors = [akTop, akRight]
              OnClick = frameModpathEndpointDisplay1btnColorSchemesClick
              ExplicitLeft = 371
              ExplicitTop = 120
              ExplicitWidth = 138
            end
          end
          inherited tabOptions: TTabSheet
            ExplicitTop = 29
            ExplicitHeight = 465
            DesignSize = (
              468
              465)
            inherited rgShow2D: TRadioGroup
              Width = 316
              ExplicitWidth = 316
            end
            inherited rgWhereToPlot: TRadioGroup
              Left = 331
              ExplicitLeft = 331
            end
            inherited rgColorBy: TRadioGroup
              Height = 270
              ExplicitHeight = 270
            end
            inherited rdgLimits: TRbwDataGrid4
              Width = 481
              Height = 496
              Anchors = [akLeft, akTop, akRight, akBottom]
              ExplicitWidth = 481
              ExplicitHeight = 496
              ColWidths = (
                64
                64
                64)
              RowHeights = (
                24
                24
                24
                24
                24
                24)
            end
          end
          inherited tabLegend: TTabSheet
            ExplicitTop = 29
            ExplicitHeight = 465
            inherited imLegend: TImage
              Height = 465
              ExplicitWidth = 262
              ExplicitHeight = 468
            end
            inherited splColor: TSplitter
              Height = 465
              ExplicitHeight = 468
            end
            inherited pnlLegend: TPanel
              Height = 465
              ExplicitHeight = 465
              DesignSize = (
                201
                465)
              inherited lblMethod: TLabel
                Width = 52
                Height = 18
                ExplicitWidth = 52
                ExplicitHeight = 18
              end
              inherited lblColorLegendRows: TLabel
                Width = 109
                Height = 18
                ExplicitWidth = 109
                ExplicitHeight = 18
              end
              inherited comboMethod: TComboBox
                Height = 26
                ExplicitHeight = 26
              end
              inherited seLegendRows: TJvSpinEdit
                Height = 26
                ExplicitHeight = 26
              end
              inherited rdgLegend: TRbwDataGrid4
                ColWidths = (
                  64)
                RowHeights = (
                  24
                  24
                  24
                  24
                  24)
              end
            end
          end
        end
      end
    end
    object jvspColorGrid: TJvStandardPage
      Left = 0
      Top = 0
      Width = 572
      Height = 521
      HelpType = htKeyword
      HelpKeyword = 'Color_Grid_Dialog_Box'
      Caption = 'jvspColorGrid'
      inline frameColorGrid: TframeColorGrid
        Left = 0
        Top = 0
        Width = 572
        Height = 521
        Align = alClient
        TabOrder = 0
        OnResize = frameColorGridResize
        ExplicitWidth = 572
        ExplicitHeight = 521
        inherited pcChoices: TPageControl
          Width = 572
          Height = 521
          ExplicitWidth = 572
          ExplicitHeight = 521
          inherited tabSelection: TTabSheet
            ExplicitTop = 29
            ExplicitWidth = 564
            ExplicitHeight = 488
            inherited lblDataSet: TLabel
              Width = 212
              Height = 18
              ExplicitWidth = 212
              ExplicitHeight = 18
            end
            inherited lblColorScheme: TLabel
              Top = 284
              Width = 97
              Height = 18
              ExplicitTop = 289
              ExplicitWidth = 97
              ExplicitHeight = 18
            end
            inherited lblCycles: TLabel
              Left = 411
              Top = 335
              Width = 47
              Height = 18
              ExplicitLeft = 463
              ExplicitTop = 315
              ExplicitWidth = 47
              ExplicitHeight = 18
            end
            inherited pbColorScheme: TPaintBox
              Left = 8
              Top = 352
              Width = 397
              ExplicitLeft = 8
              ExplicitTop = 332
              ExplicitWidth = 449
            end
            inherited lblColorAdjustment: TLabel
              Top = 391
              Width = 117
              Height = 18
              ExplicitTop = 401
              ExplicitWidth = 117
              ExplicitHeight = 18
            end
            inherited lblComment: TLabel
              Width = 204
              Height = 18
              ExplicitWidth = 204
              ExplicitHeight = 18
            end
            inherited lblTime: TLabel
              Left = 419
              Top = 2
              Width = 34
              Height = 18
              ExplicitLeft = 443
              ExplicitTop = 2
              ExplicitWidth = 34
              ExplicitHeight = 18
            end
            inherited comboColorScheme: TComboBox
              Left = 8
              Top = 308
              Width = 253
              Height = 26
              ExplicitLeft = 8
              ExplicitTop = 308
              ExplicitWidth = 253
              ExplicitHeight = 26
            end
            inherited seCycles: TJvSpinEdit
              Left = 411
              Top = 359
              Height = 26
              ExplicitLeft = 415
              ExplicitTop = 359
              ExplicitHeight = 26
            end
            inherited jsColorExponent: TJvxSlider
              Left = 2
              Top = 415
            end
            inherited seColorExponent: TJvSpinEdit
              Left = 158
              Top = 418
              Height = 26
              ExplicitLeft = 158
              ExplicitTop = 418
              ExplicitHeight = 26
            end
            inherited cbLogTransform: TCheckBox
              Left = 257
              Top = 421
              Height = 20
              ExplicitLeft = 257
              ExplicitTop = 421
              ExplicitHeight = 20
            end
            inherited udDataSets: TJvUpDown
              Left = 381
              Height = 26