inherited frmLayers: TfrmLayers
  HelpType = htKeyword
  HelpKeyword = 'MODFLOW_Layer_Groups_Dialog_Box'
  Caption = 'MODFLOW Layer Groups'
  ClientHeight = 480
  ClientWidth = 579
  ExplicitWidth = 595
  ExplicitHeight = 519
  TextHeight = 18
  object Splitter1: TSplitter
    Left = 137
    Top = 0
    Width = 5
    Height = 439
    ExplicitHeight = 278
  end
  object pcLayerGroups: TPageControl
    Left = 142
    Top = 0
    Width = 437
    Height = 439
    ActivePage = tabBasics
    Align = alClient
    TabOrder = 1
    OnChange = pcLayerGroupsChange
    object tabBasics: TTabSheet
      HelpType = htKeyword
      HelpKeyword = 'Basics_Tab'
      Caption = 'Basics'
      DesignSize = (
        429
        406)
      object Label1: TLabel
        Left = 3
        Top = 3
        Width = 196
        Height = 18
        Caption = 'Layer Group (Aquifer) Name'
      end
      object Label5: TLabel
        Left = 3
        Top = 109
        Width = 198
        Height = 18
        Caption = 'Layer type (LAYTYP, LTHUF)'
      end
      object lblInterblockMethod: TLabel
        Left = 3
        Top = 213
        Width = 388
        Height = 18
        Caption = 'Method of calculating interblock transmissivity (LAYAVG)'
      end
      object lbVertKMethod: TLabel
        Left = 3
        Top = 277
        Width = 349
        Height = 36
        Caption = 'Method of specifying vertical hydraulic conductivity (LAYVKA)'
        WordWrap = True
      end
      object lblAnisotropy: TLabel
        Left = 3
        Top = 353
        Width = 199
        Height = 18
        Caption = 'Horizontal anisotropy (TRPY)'
      end
      object lblModflow6Info: TLabel
        Left = 3
        Top = 58
        Width = 371
        Height = 36
        Caption = 
          'The properties below are not used with MODFLOW 6.'#13#10'See the help ' +
          'for more information'
      end
      object comboAquiferType: TJvImageComboBox
        Left = 3
        Top = 133
        Width = 399
        Height = 28
        Style = csOwnerDrawVariable
        Anchors = [akLeft, akTop, akRight]
        ButtonStyle = fsLighter
        DroppedWidth = 427
        ImageHeight = 0
        ImageWidth = 0
        Images = ilCombo
        ItemHeight = 22
        ItemIndex = 1
        TabOrder = 1
        OnChange = comboAquiferTypeChange
        Items = <
          item
            Brush.Style = bsClear
            ImageIndex = 3
            Indent = 0
            Text = 'Non-simulated'
          end
          item
            Brush.Style = bsClear
            ImageIndex = 0
            Indent = 0
            Text = 'Confined'
          end
          item
            Brush.Style = bsClear
            ImageIndex = 1
            Indent = 0
            Text = 'Convertible'
          end>
      end
      object comboInterblockMethod: TJvImageComboBox
        Left = 3
        Top = 237
        Width = 399
        Height = 28
        Style = csOwnerDrawVariable
        Anchors = [akLeft, akTop, akRight]
        ButtonStyle = fsLighter
        DroppedWidth = 427
        ImageHeight = 0
        ImageWidth = 0
        ItemHeight = 22
        ItemIndex = 0
        TabOrder = 3
        OnChange = comboInterblockMethodChange
        Items = <
          item
            Brush.Style = bsClear
            Indent = 0
            Text = 'Harmonic mean (0)'
          end
          item
            Brush.Style = bsClear
            Indent = 0
            Text = 'Logarithmic mean (1)'
          end
          item
            Brush.Style = bsClear
            Indent = 0
            Text = 'Arithmetic and logarithmic (2)'
          end>
      end
      object comboVertKMethod: TJvImageComboBox
        Left = 3
        Top = 319
        Width = 399
        Height = 28
        Style = csOwnerDrawVariable
        Anchors = [akLeft, akTop, akRight]
        ButtonStyle = fsLighter
        DroppedWidth = 427
        ImageHeight = 0
        ImageWidth = 0
        ItemHeight = 22
        ItemIndex = 0
        TabOrder = 4
        OnChange = comboVertKMethodChange
        Items = <
          item
            Brush.Style = bsClear
            Indent = 0
            Text = 'Vertical hydraulic conductivity (0)'
          end
          item
            Brush.Style = bsClear
            Indent = 0
            Text = 'Ratio of horizontal to vertical hydraulic conductivity (1)'
          end>
      end
      object edName: TRbwEdit
        Left = 3
        Top = 26
        Width = 399
        Height = 26
        Anchors = [akLeft, akTop, akRight]
        TabOrder = 0
        OnChange = edNameChange
        OnExit = edNameExit
      end
      object cbComputeSaturatedThickness: TJvCheckBox
        Left = 3
        Top = 167
        Width = 399
        Height = 40
        Anchors = [akLeft, akTop, akRight]
        Caption = 'Compute saturated thickness using starting head (LAYTYP)'
        TabOrder = 2
        WordWrap = True
        OnClick = cbComputeSaturatedThicknessClick
        LinkedControls = <>
        AutoSize = False
        HotTrackFont.Charset = ANSI_CHARSET
        HotTrackFont.Color = clWindowText
        HotTrackFont.Height = -16
        HotTrackFont.Name = 'Arial'
        HotTrackFont.Pitch = fpVariable
        HotTrackFont.Style = []
      end
      object rdeAnisotropy: TRbwDataEntry
        Left = 3
        Top = 377
        Width = 145
        Height = 22
        TabOrder = 5
        Text = '1'
        OnChange = rdeAnisotropyChange
        DataType = dtReal
        Max = 1.000000000000000000
        CheckMin = True
        ChangeDisabledColor = True
      end
    end
    object tabDiscretization: TTabSheet
      HelpType = htKeyword
      HelpKeyword = 'Discretization_Tab'
      Caption = 'Discretization'
      ImageIndex = 1
      inline frameDiscretization: TframeDiscretization
        Left = 0
        Top = 0
        Width = 429
        Height = 406
        Align = alClient
        TabOrder = 0
        ExplicitWidth = 429
        ExplicitHeight = 406
        inherited lbl1: TLabel
          Width = 148
          Height = 18
          ExplicitWidth = 148
          ExplicitHeight = 18
        end
        inherited lbl2: TLabel
          Width = 137
          Height = 18
          ExplicitWidth = 137
          ExplicitHeight = 18
        end
        inherited pnlDiscritization: TPanel
          Width = 165
          Height = 405
          ExplicitWidth = 165
          ExplicitHeight = 405
          inherited spl1: TSplitter
            Left = 77
            Height = 364
            ExplicitLeft = 89
            ExplicitHeight = 363
          end
          inherited rdgSubLayerBoundaries: TRbwDataGrid4
            Width = 77
            Height = 364
            ExplicitWidth = 77
            ExplicitHeight = 364
            ColWidths = (
              64)
            RowHeights = (
              24
              24)
          end
          inherited pnl1: TPanel
            Width = 165
            ExplicitWidth = 165
            inherited lbl3: TLabel
              Width = 165
              Height = 41
              ExplicitWidth = 142
              ExplicitHeight = 36
            end
          end
          inherited pnlPaintboxParent: TPanel
            Left = 80
            Height = 364
            ExplicitLeft = 80
            ExplicitHeight = 364
            inherited pbSubLayers: TPaintBox
              Height = 332
              ExplicitHeight = 275
            end
            inherited sbInsertLine: TSpeedButton
              Top = 336
              ExplicitTop = 336
            end
            inherited sbMoveLine: TSpeedButton
              Top = 336
              ExplicitTop = 336
            end
            inherited sbDeleteLine: TSpeedButton
              Top = 336
              ExplicitTop = 336
            end
          end
        end
        inherited rdeVDiscretization: TRbwDataEntry
          OnExit = frameDiscretizationrdeVDiscretizationExit
        end
        inherited rgMethod: TRadioGroup
          Height = 288
          ExplicitHeight = 288
        end
      end
    end
    object tabNoDelay: TTabSheet
      HelpType = htKeyword
      HelpKeyword = 'No_Delay_Beds_Tab'
      Caption = 'No-Delay Beds'
      ImageIndex = 2
      inline frameSubNoDelayBeds: TframeSubBeds
        Left = 0
        Top = 0
        Width = 429
        Height = 406
        Align = alClient
        TabOrder = 0
        TabStop = True
        ExplicitWidth = 429
        ExplicitHeight = 406
        inherited lblCount: TLabel
          Top = 380
          Width = 55
          Height = 18
          ExplicitTop = 381
          ExplicitWidth = 55
          ExplicitHeight = 18
        end
        inherited sbAdd: TSpeedButton
          Left = 345
          Top = 377
          ExplicitLeft = 349
          ExplicitTop = 378
        end
        inherited sbInsert: TSpeedButton
          Left = 374
          Top = 377
          ExplicitLeft = 378
          ExplicitTop = 378
        end
        inherited sbDelete: TSpeedButton
          Left = 403
          Top = 377
          ExplicitLeft = 407
          ExplicitTop = 378
        end
        inherited rdgSubBed: TRbwDataGrid4
          Width = 429
          Height = 367
          AutoDistributeText = True
          ExplicitWidth = 429
          ExplicitHeight = 367
          ColWidths = (
            64
            64
            64
            64
            64)
          RowHeights = (
            24
            24)
        end
        inherited seCount: TJvSpinEdit
          Top = 377
          Height = 26
          ExplicitTop = 377
          ExplicitHeight = 26
        end
      end
    end
    object tabDelay: TTabSheet
      HelpType = htKeyword
      HelpKeyword = 'Delay_Beds_Tab'
      Caption = 'Delay Beds'
      ImageIndex = 3
      inline frameSubDelayBeds: TframeSubBeds
        Left = 0
        Top = 0
        Width = 429
        Height = 406
        Align = alClient
        TabOrder = 0
        TabStop = True
        ExplicitWidth = 429
        ExplicitHeight = 406
        inherited lblCount: TLabel
          Top = 380
          Width = 55
          Height = 18
          ExplicitTop = 381
          ExplicitWidth = 55
          ExplicitHeight = 18
        end
        inherited sbAdd: TSpeedButton
          Left = 345
          Top = 377
          ExplicitLeft = 328
          ExplicitTop = 378
        end
        inherited sbInsert: TSpeedButton
          Left = 374
          Top = 377
          ExplicitLeft = 357
          ExplicitTop = 378
        end
        inherited sbDelete: TSpeedButton
          Left = 403
          Top = 377
          ExplicitLeft = 386
          ExplicitTop = 378
        end
        inherited rdgSubBed: TRbwDataGrid4
          Width = 429
          Height = 367
          AutoDistributeText = True
          ExplicitWidth = 429
          ExplicitHeight = 367
          ColWidths = (
            64
            64
            64
            64
            64)
          RowHeights = (
            24
            24)
        end
        inherited seCount: TJvSpinEdit
          Top = 377
          Height = 26
          ExplicitTop = 377
          ExplicitHeight = 26
        end
      end
    end
    object tabSWT: TTabSheet
      HelpType = htKeyword
      HelpKeyword = 'SWT_Tab'
      Caption = 'SWT'
      ImageIndex = 4
      inline frameSwt: TframeSubBeds
        Left = 0
        Top = 0
        Width = 429
        Height = 406
        Align = alClient
        TabOrder = 0
        TabStop = True
        ExplicitWidth = 429
        ExplicitHeight = 406
        inherited lblCount: TLabel
          Top = 380
          Width = 55
          Height = 18
          ExplicitTop = 381
          ExplicitWidth = 55
          ExplicitHeight = 18
        end
        inherited sbAdd: TSpeedButton
          Left = 345
          Top = 377
          ExplicitLeft = 349
          ExplicitTop = 378
        end
        inherited sbInsert: TSpeedButton
          Left = 374
          Top = 377
          ExplicitLeft = 378
          ExplicitTop = 378
        end
        inherited sbDelete: TSpeedButton
          Left = 403
          Top = 377
          ExplicitLeft = 407
          ExplicitTop = 378
        end
        inherited rdgSubBed: TRbwDataGrid4
          Width = 429
          Height = 367
          AutoDistributeText = True
          ExplicitWidth = 429
          ExplicitHeight = 367
          ColWidths = (
            64
            64
            64
            64
            64)
          RowHeights = (
            24
            24)
        end
        inherited seCount: TJvSpinEdit
          Top = 377
          Height = 26
          ExplicitTop = 377
          ExplicitHeight = 26
        end
      end
    end
    object tabDispersion: TTabSheet
      HelpType = htKeyword
      HelpKeyword = 'Dispersion_Tab'
      Caption = 'Dispersion'
      ImageIndex = 5
      object rdgDispersion: TRbwDataGrid4
        Left = 0
        Top = 41
        Width = 429
        Height = 365
        Align = alClient
        ColCount = 4
        FixedCols = 1
        RowCount = 2
        Options = [goFixedVertLine, goFixedHorzLine, goVertLine, goHorzLine, goRangeSelect, goColSizing, goEditing, goAlwaysShowEditor]
        TabOrder = 1
        OnMouseUp = rdgDispersionMouseUp
        OnSelectCell = rdgDispersionSelectCell
        OnSetEditText = rdgDispersionSetEditText
        ExtendedAutoDistributeText = False
        AutoMultiEdit = True
        AutoDistributeText = True
        AutoIncreaseColCount = False
        AutoIncreaseRowCount = False
        SelectedRowOrColumnColor = clAqua
        UnselectableColor = clBtnFace
        OnColSize = rdgDispersionColSize
        ColorRangeSelection = False
        OnHorizontalScroll = rdgDispersionHorizontalScroll
        Columns = <
          item
            AutoAdjustRowHeights = False
            AutoAdjustCaptionRowHeights = False
            ButtonCaption = '...'
            ButtonFont.Charset = DEFAULT_CHARSET
            ButtonFont.Color = clWindowText
            ButtonFont.Height = -11
            ButtonFont.Name = 'Tahoma'
            ButtonFont.Style = []
            ButtonUsed = False
            ButtonWidth = 20
            CheckMax = False
            CheckMin = False
            ComboUsed = False
            Format = rcf4String
            LimitToList = False
            MaxLength = 0
            ParentButtonFont = False
            WordWrapCaptions = False
            WordWrapCells = False
            CaseSensitivePicklist = False
            CheckStyle = csCheck
            AutoAdjustColWidths = False
          end
          item
            AutoAdjustRowHeights = True
            AutoAdjustCaptionRowHeights = False
            ButtonCaption = '...'
            ButtonFont.Charset = DEFAULT_CHARSET
            ButtonFont.Color = clWindowText
            ButtonFont.Height = -11
            ButtonFont.Name = 'Tahoma'
            ButtonFont.Style = []
            ButtonUsed = False
            ButtonWidth = 20
            CheckMax = False
            CheckMin = True
            ComboUsed = False
            Format = rcf4Real
            LimitToList = False
            MaxLength = 0
            ParentButtonFont = False
            WordWrapCaptions = True
            WordWrapCells = False
            CaseSensitivePicklist = False
            CheckStyle = csCheck
            AutoAdjustColWidths = True
          end
          item
            AutoAdjustRowHeights = True
            AutoAdjustCaptionRowHeights = False
            ButtonCaption = '...'
            ButtonFont.Charset = DEFAULT_CHARSET
            ButtonFont.Color = clWindowText
            ButtonFont.Height = -11
            ButtonFont.Name = 'Tahoma'
            ButtonFont.Style = []
            ButtonUsed = False
            ButtonWidth = 20
            CheckMax = False
            CheckMin = True
            ComboUsed = False
            Format = rcf4Real
            LimitToList = False
            MaxLength = 0
            ParentButtonFont = False
            WordWrapCaptions = True
            WordWrapCells = False
            CaseSensitivePicklist = False
            CheckStyle = csCheck
            AutoAdjustColWidths = True
          end
          item
            AutoAdjustRowHeights = True
            AutoAdjustCaptionRowHeights = False
            ButtonCaption = '...'
            ButtonFont.Charset = DEFAULT_CHARSET
            ButtonFont.Color = clWindowText
            ButtonFont.Height = -11
            ButtonFont.Name = 'Tahoma'
            ButtonFont.Style = []
            ButtonUsed = False
            ButtonWidth = 20
            CheckMax = False
            CheckMin = True
            ComboUsed = False
            Format = rcf4Real
            LimitToList = False
            MaxLength = 0
            ParentButtonFont = False
            WordWrapCaptions = True
            WordWrapCells = False
            CaseSensitivePicklist = False
            CheckStyle = csCheck
            AutoAdjustColWidths = True
          end>
        WordWrapRowCaptions = False
        ColWidths = (
          64
          64
          64
          64)
        RowHeights = (
          24
          24)
      end
      object pnlMultiEdit: TPanel
        Left = 0
        Top = 0
        Width = 429
        Height = 41
        Align = alTop
        TabOrder = 0
        object rdeMultiDispersionValues: TRbwDataEntry
          Left = 59
          Top = 8
          Width = 145
          Height = 22
          Color = clBtnFace
          Enabled = False
          TabOrder = 0
          Text = '0'
          OnChange = rdeMultiDispersionValuesChange
          DataType = dtReal
          Max = 1.000000000000000000
          CheckMin = True
          ChangeDisabledColor = True
        end
      end
    end
    object tabConduitLayers: TTabSheet
      HelpType = htKeyword
      HelpKeyword = 'Conduit_Layers_Tab'
      Caption = 'Conduit Layers'
      ImageIndex = 6
      object rdgConduitLayers: TRbwDataGrid4
        Left = 0
        Top = 41
        Width = 429
        Height = 365
        Align = alClient
        FixedCols = 1
        Options = [goFixedVertLine, goFixedHorzLine, goVertLine, goHorzLine, goRangeSelect, goEditing, goAlwaysShowEditor]
        TabOrder = 1
        OnMouseUp = rdgConduitLayersMouseUp
        OnSelectCell = rdgConduitLayersSelectCell
        OnSetEditText = rdgConduitLayersSetEditText
        ExtendedAutoDistributeText = False
        AutoMultiEdit = False
        AutoDistributeText = False
        AutoIncreaseColCount = False
        AutoIncreaseRowCount = False
        SelectedRowOrColumnColor = clAqua
        UnselectableColor = clBtnFace
        OnColSize = rdgConduitLayersColSize
        OnStateChange = rdgConduitLayersStateChange
        ColorRangeSelection = False
        OnHorizontalScroll = rdgConduitLayersHorizontalScroll
        Columns = <
          item
            AutoAdjustRowHeights = True
            AutoAdjustCaptionRowHeights = False
            ButtonCaption = '...'
            ButtonFont.Charset = DEFAULT_CHARSET
            ButtonFont.Color = clWindowText
            ButtonFont.Height = -11
            ButtonFont.Name = 'Tahoma'
            ButtonFont.Style = []
            ButtonUsed = False
            ButtonWidth = 20
            CheckMax = False
            CheckMin = False
            ComboUsed = False
            Format = rcf4String
            LimitToList = False
            MaxLength = 0
            ParentButtonFont = False
            WordWrapCaptions = True
            WordWrapCells = False
            CaseSensitivePicklist = False
            CheckStyle = csCheck
            AutoAdjustColWidths = True
          end
          item
            AutoAdjustRowHeights = True
            AutoAdjustCaptionRowHeights = False
            ButtonCaption = '...'
            ButtonFont.Charset = DEFAULT_CHARSET
            ButtonFont.Color = clWindowText
            ButtonFont.Height = -11
            ButtonFont.Name = 'Tahoma'
            ButtonFont.Style = []
            ButtonUsed = False
            ButtonWidth = 20
            CheckMax = False
            CheckMin = False
            ComboUsed = False
            Format = rcf4Boolean
            LimitToList = False
            MaxLength = 0
            ParentButtonFont = False
            WordWrapCaptions = True
            WordWrapCells = False
            CaseSensitivePicklist = False
            CheckStyle = csCheck
            AutoAdjustColWidths = True
          end
          item
            AutoAdjustRowHeights = True
            AutoAdjustCaptionRowHeights = False
            ButtonCaption = '...'
            ButtonFont.Charset = DEFAULT_CHARSET
            ButtonFont.Color = clWindowText
            ButtonFont.Height = -11
            ButtonFont.Name = 'Tahoma'
            ButtonFont.Style = []
            ButtonUsed = False
            ButtonWidth = 20
            CheckMax = False
            CheckMin = True
            ComboUsed = False
            Format = rcf4Real
            LimitToList = False
            Max = 1.000000000000000000
            MaxLength = 0
            ParentButtonFont = False
            WordWrapCaptions = True
            WordWrapCells = False
            CaseSensitivePicklist = False
            CheckStyle = csCheck
            AutoAdjustColWidths = True
          end
          item
            AutoAdjustRowHeights = True
            AutoAdjustCaptionRowHeights = False
            ButtonCaption = '...'
            ButtonFont.Charset = DEFAULT_CHARSET
            ButtonFont.Color = clWindowText
            ButtonFont.Height = -11
            ButtonFont.Name = 'Tahoma'
            ButtonFont.Style = []
            ButtonUsed = False
            ButtonWidth = 20
            CheckMax = False
            CheckMin = True
            ComboUsed = False
            Format = rcf4Real
            LimitToList = False
            MaxLength = 0
            ParentButtonFont = False
            WordWrapCaptions = True
            WordWrapCells = False
            CaseSensitivePicklist = False
            CheckStyle = csCheck
            AutoAdjustColWidths = True
          end
          item
            AutoAdjustRowHeights = True
            AutoAdjustCaptionRowHeights = False
            ButtonCaption = '...'
            ButtonFont.Charset = DEFAULT_CHARSET
            ButtonFont.Color = clWindowText
            ButtonFont.Height = -11
            ButtonFont.Name = 'Tahoma'
            ButtonFont.Style = []
            ButtonUsed = False
            ButtonWidth = 20
            CheckMax = False
            CheckMin = True
            ComboUsed = False
            Format = rcf4Real
            LimitToList = False
            MaxLength = 0
            ParentButtonFont = False
            WordWrapCaptions = True
            WordWrapCells = False
            CaseSensitivePicklist = False
            CheckStyle = csCheck
            AutoAdjustColWidths = True
          end>
        WordWrapRowCaptions = False
        ColWidths = (
          64
          64
          64
          64
          64)
        RowHeights = (
          24
          24
          24
          24
          24)
      end
      object pnl1: TPanel
        Left = 0
        Top = 0
        Width = 429
        Height = 41
        Align = alTop
        TabOrder = 0
        object rdeConduitLayers: TRbwDataEntry
          Left = 59
          Top = 8
          Width = 145
          Height = 22
          Color = clBtnFace
          Enabled = False
          TabOrder = 0
          Text = '0'
          OnChange = rdeConduitLayersChange
          DataType = dtReal
          Max = 1.000000000000000000
          CheckMin = True
          ChangeDisabledColor = True
        end
      end
    end
  end
  object Panel4: TPanel
    Left = 0
    Top = 439
    Width = 579
    Height = 41
    Align = alBottom
    TabOrder = 2
    DesignSize = (
      579
      41)
    object btnHelp: TBitBtn
      Left = 239
      Top = 5
      Width = 108
      Height = 33
      Anchors = [akTop, akRight]
      Kind = bkHelp
      NumGlyphs = 2
      TabOrder = 0
      OnClick = btnHelpClick
    end
    object btnOK: TBitBtn
      Left = 353
      Top = 6
      Width = 108
      Height = 33
      Anchors = [akTop, akRight]
      Kind = bkOK
      NumGlyphs = 2
      TabOrder = 1
      OnClick = btnOKClick
    end
    object btnCancel: TBitBtn
      Left = 467
      Top = 6
      Width = 108
      Height = 33
      Anchors = [akTop, akRight]
      Kind = bkCancel
      NumGlyphs = 2
      TabOrder = 2
    end
  end
  object Panel3: TPanel
    Left = 0
    Top = 0
    Width = 137
    Height = 439
    Align = alLeft
    TabOrder = 0
    object GridPanel1: TGridPanel
      Left = 1
      Top = 406
      Width = 135
      Height = 32
      Align = alBottom
      ColumnCollection = <
        item
          Value = 33.167082294264350000
        end
        item
          Value = 33.167082294264350000
        end
        item
          Value = 33.665835411471310000
        end>
      ControlCollection = <
        item
          Column = 0
          Control = sbAddUnit
          Row = 0
        end
        item
          Column = 1
          Control = sbInsertUnit
          Row = 0
        end
        item
          Column = 2
          Control = sbDeleteUnit
          Row = 0
        end>
      RowCollection = <
        item
          Value = 100.000000000000000000
        end>
      TabOrder = 1
      DesignSize = (
        135
        32)
      object sbAddUnit: TSpeedButton
        Left = 11
        Top = 5
        Width = 23
        Height = 22
        Hint = 'Add layer group|Add a layer group below the bottom layer group.'
        Anchors = []
        Glyph.Data = {
          F6000000424DF600000000000000760000002800000010000000100000000100
          0400000000008000000000000000000000001000000000000000000000000000
          8000008000000080800080000000800080008080000080808000C0C0C0000000
          FF0000FF000000FFFF00FF000000FF00FF00FFFF0000FFFFFF00FFFFFFFFFFFF
          FFFFFFFFFFFFFFFFFFFFFFFF00000000000FF0FF0CCCCCCCCC0F000F0CCCCCCC
          CC0FF0FF0CCCCCCCCC0FFFFF00000000000FFFFF0FFFFFFFFF0FFFFF0FFFFFFF
          FF0FFFFF0FFFFFFFFF0FFFFF00000000000FFFFF0FFFFFFFFF0FFFFF0FFFFFFF
          FF0FFFFF0FFFFFFFFF0FFFFF00000000000FFFFFFFFFFFFFFFFF}
        ParentShowHint = False
        ShowHint = True
        OnClick = sbAddUnitClick
        ExplicitTop = 6
      end
      object sbInsertUnit: TSpeedButton
        Left = 55
        Top = 5
        Width = 23
        Height = 22
        Hint = 
          'Insert layer group|Insert a layer group above the selected layer' +
          ' group.'
        Anchors = []
        Glyph.Data = {
          F6000000424DF600000000000000760000002800000010000000100000000100
          0400000000008000000000000000000000001000000000000000000000000000
          8000008000000080800080000000800080008080000080808000C0C0C0000000
          FF0000FF000000FFFF00FF000000FF00FF00FFFF0000FFFFFF00FFFFFFFFFFFF
          FFFFFFFFFFFFFFFFFFFFFFFF00000000000FFFFF0FFFFFFFFF0FFFFF0FFFFFFF
          FF0FFFFF0FFFFFFFFF0FFFFF00000000000FF0FF0CCCCCCCCC0F000F0CCCCCCC
          CC0FF0FF0CCCCCCCCC0FFFFF00000000000FFFFF0FFFFFFFFF0FFFFF0FFFFFFF
          FF0FFFFF0FFFFFFFFF0FFFFF00000000000FFFFFFFFFFFFFFFFF}
        ParentShowHint = False
        ShowHint = True
        OnClick = sbInsertUnitClick
        ExplicitLeft = 48
        ExplicitTop = 15
      end
      object sbDeleteUnit: TSpeedButton
        Left = 100
        Top = 5
        Width = 23
        Height = 22
        Hint = 'Delete layer group|Delete the selected layer group.'
        Anchors = []
        Glyph.Data = {
          36030000424D3603000000000000360000002800000010000000100000000100
          18000000000000030000120B0000120B00000000000000000000FFFFFFFFFFFF
          FFFFFFFFFFFFFFFFFFFFFFFFFFFFFFFFFFFFFFFFFFFFFFFFFFFFFFFFFFFFFFFF
          FFFFFFFFFFFFFFFFFFFFFFFFFFFFFFFFFFFFFFFFFFFFFFFFFFFFFFFFFFFFFFFF
          FFFFFFFFFFFFFFFFFFFFFFFFFFFFFFFFFFFFFFFFFFFFFFFFFFFFFFFFFFFFFFFF
          FFFFFF000000FFFFFFFFFFFFFFFFFFFFFFFFFFFFFFFFFFFFFFFFFFFFFFFFFFFF
          FFFFFFFF000000FFFFFFFFFFFFFFFFFF000000000000000000FFFFFFFFFFFFFF
          FFFFFFFFFFFFFFFFFFFFFFFFFFFFFFFFFFFFFFFFFFFFFFFFFFFFFFFFFFFFFFFF
          000000000000000000000000FFFFFFFFFFFFFFFFFFFFFFFFFFFFFFFFFFFFFFFF
          FF000000FFFFFFFFFFFFFFFFFFFFFFFFFFFFFF000000000000000000FFFFFFFF
          FFFFFFFFFFFFFFFFFFFFFFFFFFFF000000FFFFFFFFFFFFFFFFFFFFFFFFFFFFFF
          FFFFFFFFFFFF000000000000000000FFFFFFFFFFFFFFFFFFFFFFFF0000000000
          00FFFFFFFFFFFFFFFFFFFFFFFFFFFFFFFFFFFFFFFFFFFFFFFF00000000000000
          0000FFFFFFFFFFFF000000000000FFFFFFFFFFFFFFFFFFFFFFFFFFFFFFFFFFFF
          FFFFFFFFFFFFFFFFFFFFFFFF000000000000000000000000000000FFFFFFFFFF
          FFFFFFFFFFFFFFFFFFFFFFFFFFFFFFFFFFFFFFFFFFFFFFFFFFFFFFFFFFFFFF00
          0000000000000000FFFFFFFFFFFFFFFFFFFFFFFFFFFFFFFFFFFFFFFFFFFFFFFF
          FFFFFFFFFFFFFFFFFFFFFFFF000000000000000000000000000000FFFFFFFFFF
          FFFFFFFFFFFFFFFFFFFFFFFFFFFFFFFFFFFFFFFFFFFFFFFFFF00000000000000
          0000FFFFFFFFFFFF000000000000FFFFFFFFFFFFFFFFFFFFFFFFFFFFFFFFFFFF
          FFFFFF000000000000000000000000FFFFFFFFFFFFFFFFFFFFFFFF0000000000
          00FFFFFFFFFFFFFFFFFFFFFFFFFFFFFF000000000000000000000000FFFFFFFF
          FFFFFFFFFFFFFFFFFFFFFFFFFFFF000000000000FFFFFFFFFFFFFFFFFFFFFFFF
          000000000000000000FFFFFFFFFFFFFFFFFFFFFFFFFFFFFFFFFFFFFFFFFFFFFF
          FFFFFFFF000000FFFFFFFFFFFFFFFFFFFFFFFFFFFFFFFFFFFFFFFFFFFFFFFFFF
          FFFFFFFFFFFFFFFFFFFFFFFFFFFFFFFFFFFFFFFFFFFFFFFFFFFF}
        ParentShowHint = False
        ShowHint = True
        OnClick = sbDeleteUnitClick
        ExplicitLeft = 107
        ExplicitTop = 6
      end
    end
    object tvLayerGroups: TTreeView
      Left = 1
      Top = 1
      Width = 135
      Height = 405
      Align = alClient
      HideSelection = False