{
  @name defines the form on which the user activates or deactivates
  MODFLOW packages.

  To add a new package, add a new page to
  @link(TfrmModflowPackages.jvplPackages)
  and put a @link(TFramePackage) or one of its descendants on it.
  Add additional controls if required.
  Add a new package to @link(TCustomModel.ModflowPackages
  frmGoPhast.PhastModel.ModflowPackages).
  Modfify @link(TfrmModflowPackages.GetData) and
  @link(TfrmModflowPackages.SetData) to use the new package and
  @link(TFramePackage). Often this can be done by just modifying
  @link(AddPackagesToList).
  Update @link(TModflowPackages.Assign),
  @link(TModflowPackages.Create), @link(TModflowPackages.Destroy),
  @link(TModflowPackages.Reset), and
  @link(TModflowPackages.SelectedModflowPackageCount).
}
unit frmModflowPackagesUnit;

interface

uses System.UITypes,
  Windows, Messages, SysUtils, Variants, Classes, Graphics, Controls, Forms,
  Dialogs, frmCustomGoPhastUnit, JvPageList, JvExControls, ExtCtrls,
  JvExExtCtrls, JvNetscapeSplitter, ComCtrls, StdCtrls,
  framePackageUnit, Buttons, UndoItems, ModflowPackageSelectionUnit,
  ArgusDataEntry, framePcgUnit, ModflowPackagesUnit, JvSpin,
  RbwController, Grids, RbwDataGrid4, ModflowParameterUnit,
  ModflowTransientListParameterUnit, OrderedCollectionUnit,
  frameListParameterDefinitionUnit, frameArrayParameterDefinitionUnit,
  framePackageTransientLayerChoiceUnit, frameEtsPackageUnit, ImgList,
  framePackageResUnit, PhastModelUnit, GoPhastTypes,
  framePackageLAK_Unit, framePackageSFRUnit,
  framePackageLayerChoiceUnit, framePackageUZFUnit, frameGmgUnit, frameSipUnit,
  frameDe4Unit, JvExComCtrls, JvComCtrls, RequiredDataSetsUndoUnit,
  framePackageHobUnit, framePackageLpfUnit, frameModpathSelectionUnit,
  framePackageHufUnit, HufDefinition, framePackageMnw2Unit, framePackageSubUnit,
  frameZoneBudgetUnit, framePackageSwtUnit, framePkgHydmodUnit,
  framePackageRCHUnit, framePackageUpwUnit, framePackageNwtUnit,
  frameMt3dBasicPkgUnit, frameMt3dmsGcgPackageUnit, frameMt3dmsAdvPkgUnit,
  frameMt3dmsDispersionPkgUnit, Mt3dmsChemSpeciesUnit,
  frameMt3dmsChemReactionPkgUnit, frameMt3dmsTransObsPkgUnit, Mt3dmsTimesUnit,
  framePackagePcgnUnit, framePackageWellUnit, framePackageStrUnit,
  framePackageFrmUnit, frameRadioGridUnit, framePackageCFPUnit,
  framePackageSwiUnit, framePackageSwrUnit, framePackageMnw1Unit,
  framePackageNpfUnit, framePkgStoUnit, framePkgSmsUnit, framePackageRipUnit,
  framePackageSfrMF6Unit,
  System.ImageList,
  framePackageMawUnit,
  framePackageGNC_Unit, framePackageMf6ObsUnit, framePackageLakMf6Unit,
  framePackageMvrUnit, framePackageUzfMf6Unit, frameMt3dLktPkgUnit,
  frameMt3dSftUnit, frameMt3dCtsPkgUnit, framePackageCsubUnit,
  PestParamGroupsUnit, frameGwtDspPackageUnit, frameGwtAdvPackageUnit,
  framePackageMSTUnit, framePackageIstUnit, frameChemSpeciesUnit,
  System.Generics.Collections, framePackageFmiUnit, framePackageFmp4Unit,
  framePackageFmp4SoilsUnit, framePackageFmp4ClimateUnit,
  framePackageFmp4SurfaceWaterUnit, framePackageFmp4WellsUnit,
  framePackageFmp4AllotmentsUnit, framePackageFmp4LandUseUnit,
  framePackageFmp4SalinityFlushUnit;

type

  TTempPackageItem = class(TCollectionItem)
  private
    FPackages: TModflowPackages;
  public
    property Packages: TModflowPackages read FPackages;
    Constructor Create(Collection: TCollection); override;
    Destructor Destroy; override;
  end;

  TTempPackageCollection = class(TCollection)
  private
    function GetItem(Index: integer): TTempPackageItem;
    procedure SetItem(Index: integer; const Value: TTempPackageItem);
  public
    constructor Create;
    function Add: TTempPackageItem;
    property Items[Index: integer]: TTempPackageItem read GetItem
      write SetItem; default;
  end;

  TFrameNodeLink = class(TObject)
  private
    FNode: TTreeNode;
    FFrame: TframePackage;
    procedure SetNode(const Value: TTreeNode);
    procedure SetFrame(const Value: TframePackage);
  public
    AlternateNode: TTreeNode;
    property Node: TTreeNode read FNode write SetNode;
    property Frame: TframePackage read FFrame write SetFrame;
  end;

  TfrmModflowPackages = class(TfrmCustomGoPhast)
    tvPackages: TTreeView;
    JvNetscapeSplitter1: TJvNetscapeSplitter;
    jvplPackages: TJvPageList;
    jvspLPF: TJvStandardPage;
    jvspCHD: TJvStandardPage;
    framePkgCHD: TframePackage;
    pnlBottom: TPanel;
    btnHelp: TBitBtn;
    btnOK: TBitBtn;
    btnCancel: TBitBtn;
    jvspPCG: TJvStandardPage;
    framePCG: TframePCG;
    jvspGHB: TJvStandardPage;
    framePkgGHB: TframePackage;
    jvspWEL: TJvStandardPage;
    framePkgWEL: TframePackageWell;
    jvspRIV: TJvStandardPage;
    framePkgRIV: TframePackage;
    jvspDRN: TJvStandardPage;
    framePkgDRN: TframePackage;
    jvspDRT: TJvStandardPage;
    framePkgDRT: TframePackage;
    rbwLpfParamCountController: TRbwController;
    frameLpfParameterDefinition: TframeArrayParameterDefinition;
    tvLpfParameterTypes: TTreeView;
    splitLprParameter: TJvNetscapeSplitter;
    frameChdParameterDefinition: TframeListParameterDefinition;
    frameDrnParameterDefinition: TframeListParameterDefinition;
    frameDrtParameterDefinition: TframeListParameterDefinition;
    frameGhbParameterDefinition: TframeListParameterDefinition;
    frameRivParameterDefinition: TframeListParameterDefinition;
    frameWelParameterDefinition: TframeListParameterDefinition;
    jvspRCH: TJvStandardPage;
    jvspEVT: TJvStandardPage;
    framePkgEVT: TframePackageTransientLayerChoice;
    frameEvtParameterDefinition: TframeListParameterDefinition;
    framePkgRCH: TframePackageRCH;
    frameRchParameterDefinition: TframeListParameterDefinition;
    jvspETS: TJvStandardPage;
    framePkgETS: TframeEtsPackage;
    frameEtsParameterDefinition: TframeListParameterDefinition;
    ilCheckImages: TImageList;
    jvspRES: TJvStandardPage;
    framePkgRES: TframePackageRes;
    jvspLAK: TJvStandardPage;
    framePkgLAK: TframePackageLAK;
    jvspSFR: TJvStandardPage;
    frameSFRParameterDefinition: TframeListParameterDefinition;
    framePkgSFR: TframePackageSFR;
    pcSFR: TJvPageControl;
    tabSfrGeneral: TTabSheet;
    tabSfrParameters: TTabSheet;
    jplSfrParameters: TJvPageList;
    splitSFR: TSplitter;
    jvspUZF: TJvStandardPage;
    framePkgUZF: TframePackageUZF;
    jvspGMG: TJvStandardPage;
    framePkgGMG: TframeGMG;
    jvspSIP: TJvStandardPage;
    framePkgSIP: TframeSIP;
    jvspDE4: TJvStandardPage;
    framePkgDE4: TframeDE4;
    jvspHOB: TJvStandardPage;
    framePkgHOB: TframePackageHob;
    jvspHFB: TJvStandardPage;
    framePkgHFB: TframePackage;
    frameHfbParameterDefinition: TframeListParameterDefinition;
    framePkgLPF: TframePackageLpf;
    jvspModpath: TJvStandardPage;
    frameModpath: TframeModpathSelection;
    jvspCHOB: TJvStandardPage;
    framePkgCHOB: TframePackage;
    jvspDROB: TJvStandardPage;
    jvspGBOB: TJvStandardPage;
    jvspRVOB: TJvStandardPage;
    framePkgDROB: TframePackage;
    framePkgGBOB: TframePackage;
    framePkgRVOB: TframePackage;
    JvNetscapeSplitter3: TJvNetscapeSplitter;
    jvspHUF: TJvStandardPage;
    framePkgHuf: TframePackageHuf;
    tvHufParameterTypes: TTreeView;
    JvNetscapeSplitter4: TJvNetscapeSplitter;
    JvNetscapeSplitter5: TJvNetscapeSplitter;
    frameHufParameterDefinition: TframeListParameterDefinition;
    rbwHufParamCountController: TRbwController;
    jvspMNW2: TJvStandardPage;
    framePkgMnw2: TframePackageMnw2;
    jvspBCF: TJvStandardPage;
    framePkgBCF: TframePackage;
    jvspSUB: TJvStandardPage;
    framePkgSUB: TframePackageSub;
    jvspZoneBudget: TJvStandardPage;
    frameZoneBudget: TframeZoneBudget;
    jvspSWT: TJvStandardPage;
    framePkgSwt: TframePackageSwt;
    jvspHydmod: TJvStandardPage;
    framePkgHydmod: TframePkgHydmod;
    pnlLeft: TPanel;
    pnlModel: TPanel;
    comboModel: TComboBox;
    lblModel: TLabel;
    jvspUPW: TJvStandardPage;
    framePkgUPW: TframePackageUpw;
    JvNetscapeSplitter6: TJvNetscapeSplitter;
    jvspNWT: TJvStandardPage;
    framePkgNwt: TframePackageNwt;
    jvspMt3dmsBasic: TJvStandardPage;
    framePkgMt3dBasic: TframeMt3dBasicPkg;
    jvspMt3dmsGCG: TJvStandardPage;
    frameMt3dmsGcgPackage: TframeMt3dmsGcgPackage;
    jvspMt3dmsAdv: TJvStandardPage;
    frameMt3dmsAdvPkg: TframeMt3dmsAdvPkg;
    jvspMt3dmsDsp: TJvStandardPage;
    frameMt3dmsDispersionPkg: TframeMt3dmsDispersionPkg;
    jvspMt3dmsSsm: TJvStandardPage;
    framePkgSSM: TframePackage;
    jvspMt3dmsRct: TJvStandardPage;
    framePkgMt3dmsRct: TframeMt3dmsChemReactionPkg;
    jvspMt3dmsTOB: TJvStandardPage;
    framePkgMt3dmsTob: TframeMt3dmsTransObsPkg;
    jvspPCGN: TJvStandardPage;
    framePackagePcgn: TframePackagePcgn;
    jvspSTR: TJvStandardPage;
    framePkgStr: TframePackageStr;
    frameStrParameterDefinition: TframeListParameterDefinition;
    jvspSTOB: TJvStandardPage;
    framePkgSTOB: TframePackage;
    jvspFHB: TJvStandardPage;
    framePkgFHB: TframePackage;
    jvspFMP: TJvStandardPage;
    frameFmpParameterDefinition: TframeListParameterDefinition;
    framePkgFrm: TframePkgFarm;
    jvspCFP: TJvStandardPage;
    framePkgCFP: TframePackageCFP;
    jvspSWI: TJvStandardPage;
    framePackageSWI: TframePackageSWI;
    jvspSWR: TJvStandardPage;
    framePkgSWR: TframePackageSwr;
    jvspMNW1: TJvStandardPage;
    framePkgMnw1: TframePackageMnw1;
    jvspNPF: TJvStandardPage;
    framePkgNpf: TframePackageNpf;
    jvspSTO: TJvStandardPage;
    framePkgSto: TframePkgSto;
    jvspIMS: TJvStandardPage;
    framePkgIMS: TframePkgSms;
    jvspRIP: TJvStandardPage;
    framePkgRip: TframePackageRip;
    jvspMt3dUZT: TJvStandardPage;
    framePkgMt3dUZT: TframePackage;
    jvspSfrMf6: TJvStandardPage;
    framePackageSfrMF6: TframePackageSfrMF6;
    jvspMAW: TJvStandardPage;
    framePkgMAW: TframePackageMaw;
    jvspGNC: TJvStandardPage;
    framePkgGNC: TframePackageGNC;
    jvspMf6Obs: TJvStandardPage;
    framePackageMf6Obs: TframePackageMf6Obs;
    jvspLakMf6: TJvStandardPage;
    framePackageLakMf6: TframePackageLakMf6;
    jvspMVR: TJvStandardPage;
    framePkgMVR: TframePackageMvr;
    jvspUzfMf6: TJvStandardPage;
    framePackageUzfMf6: TframePackageUzfMf6;
    jvspMt3dLkt: TJvStandardPage;
    frameMt3dLktPkg: TframeMt3dLktPkg;
    jvspMt3dSft: TJvStandardPage;
    frameMt3dSftPkg: TframeMt3dSftPkg;
    jvspMt3dCts: TJvStandardPage;
    frameMt3dCtsPkg: TframeMt3dCtsPkg;
    jvspCSUB: TJvStandardPage;
    framePackageCsub: TframePackageCsub;
    jvspGwtDisp: TJvStandardPage;
    frameGwtDsp: TframeGwtDspPackage;
    jvspGwtAdv: TJvStandardPage;
    frameGwtAdv: TframeGwtAdvPackage;
    jvspGwtSsm: TJvStandardPage;
    frameGwtSSM: TframePackage;
    jvspGwtCNC: TJvStandardPage;
    frameGwtCNC: TframePackage;
    jvspGwtSRC: TJvStandardPage;
    frameGwtSRC: TframePackage;
    jvspGwtProcess: TJvStandardPage;
    frameGwtProcess: TframePackageFmi;
    jvspChemSpecies: TJvStandardPage;
    frameChemSpecies: TframeChemSpecies;
    TimerBringToFront: TTimer;
    jvspFMP4: TJvStandardPage;
    framePkgFMP4: TframePackageFmp4;
    jvspFmp4Soil: TJvStandardPage;
    framePkgFmp4Soils: TframePackageFmp4Soils;
    jvspFmp4Climate: TJvStandardPage;
    framePkgFmp4Climate: TframePackageFmp4Climate;
    jvspFmp4SurfaceWater: TJvStandardPage;
    framePkgFmp4SurfaceWater: TframePackageFmp4SurfaceWater;
    jvspFmp4SupplyWells: TJvStandardPage;
    framePkgFmp4Wells: TframePackageFmp4Wells;
    jvspFmp4Allotments: TJvStandardPage;
    framePkgFmp4Allotments: TframePackageFmp4Allotments;
    jvspFmp4LandUse: TJvStandardPage;
    framePkgFmp4LandUse: TframePackageFmp4LandUse;
    jvspFmp4SalinityFlush: TJvStandardPage;
    framePkgFmp4SalinityFlush: TframePackageFmp4SalinityFlush;
    dlgOpenSelectExternalFile: TOpenDialog;
    procedure tvPackagesChange(Sender: TObject; Node: TTreeNode);
    procedure btnOKClick(Sender: TObject);
    procedure FormDestroy(Sender: TObject); override;
    procedure tvLpfParameterTypesChange(Sender: TObject; Node: TTreeNode);
    procedure frameParameterDefinition_seNumberOfParametersChange(
      Sender: TObject);
    procedure frameParameterDefinition_btnDeleteClick(Sender: TObject);
    procedure jvplPackagesChange(Sender: TObject);
    procedure tvPackagesMouseUp(Sender: TObject; Button: TMouseButton;
      Shift: TShiftState; X, Y: Integer);
    procedure framePkgSFRrcSelectionControllerEnabledChange(Sender: TObject);
    procedure framePkgSFRcbSfrUnsatflowClick(Sender: TObject);
    procedure framePkgSFRcbSfrLpfHydraulicCondClick(Sender: TObject);
    procedure framePkgSFRrgSfr2ISFROPTClick(Sender: TObject);
    procedure frameSFRParameterDefinitionseNumberOfParametersChange(
      Sender: TObject);
    procedure frameSFRParameterDefinitionbtnDeleteClick(Sender: TObject);
    procedure frameSFRParameterDefinitiondgParametersSelectCell(Sender: TObject;
      ACol, ARow: Integer; var CanSelect: Boolean);
    procedure frameSFRParameterDefinitiondgParametersSetEditText(
      Sender: TObject; ACol, ARow: Integer; const Value: string);
    procedure FormResize(Sender: TObject);
    procedure frameModpathrcSelectionControllerEnabledChange(Sender: TObject);
    procedure framePkgEVTrcSelectionControllerEnabledChange(Sender: TObject);
    procedure framePkgRCHrcSelectionControllerEnabledChange(Sender: TObject);
    procedure FormCreate(Sender: TObject); override;
    procedure tvHufParameterTypesChange(Sender: TObject; Node: TTreeNode);
    procedure framePkgHufrcSelectionControllerEnabledChange(Sender: TObject);
    procedure framePkgUZFrcSelectionControllerEnabledChange(Sender: TObject);
    procedure framePkgBCFrcSelectionControllerEnabledChange(Sender: TObject);
    procedure comboModelChange(Sender: TObject);
    procedure framePkgLPFrcSelectionControllerEnabledChange(Sender: TObject);
    procedure framePkgUPWrcSelectionControllerEnabledChange(Sender: TObject);
    procedure FormShow(Sender: TObject);
    procedure framePkgNwtpcNWTChange(Sender: TObject);
    procedure framePkgNwtrcSelectionControllerEnabledChange(Sender: TObject);
    procedure framePkgFrmrcSelectionControllerEnabledChange(Sender: TObject);
    procedure tvPackagesCustomDrawItem(Sender: TCustomTreeView; Node: TTreeNode;
      State: TCustomDrawState; var DefaultDraw: Boolean);
    procedure frameCropConsumptiveUserdgGridSelectCell(Sender: TObject; ACol,
      ARow: Integer; var CanSelect: Boolean);
    procedure framePkgFrmjvplFarmChange(Sender: TObject);
    procedure framePkgCFPrcSelectionControllerEnabledChange(Sender: TObject);
    procedure framePkgCFPcbPipesClick(Sender: TObject);
    procedure framePkgSWRjvplSwrChange(Sender: TObject);
    procedure tvPackagesExpanded(Sender: TObject; Node: TTreeNode);
    procedure framePkgSFRcbSeepageLossClick(Sender: TObject);
    procedure framePkgMt3dBasiccomboVersionChange(Sender: TObject);
    procedure FormClose(Sender: TObject; var Action: TCloseAction);
    procedure jvspGMGShow(Sender: TObject);
    procedure jvspSUBShow(Sender: TObject);
    procedure jvspSWTShow(Sender: TObject);
    procedure jvspSWRShow(Sender: TObject);
    procedure frameZoneBudgetrcSelectionControllerEnabledChange(
      Sender: TObject);
    procedure framePkgLAKrcSelectionControllerEnabledChange(Sender: TObject);
    procedure framePkgMt3dBasicrcSelectionControllerEnabledChange(
      Sender: TObject);
    procedure framePackageUzfMf6rcSelectionControllerEnabledChange(
      Sender: TObject);
    procedure framePackageLakMf6rcSelectionControllerEnabledChange(
      Sender: TObject);
    procedure framePackageSfrMF6rcSelectionControllerEnabledChange(
      Sender: TObject);
    procedure framePkgSMSrcSelectionControllerEnabledChange(Sender: TObject);
    procedure btnCancelClick(Sender: TObject);
    procedure frameGridMobileseNumberChange(Sender: TObject);
    procedure frameGridImmobileseNumberChange(Sender: TObject);
    procedure frameGridMobileGridExit(Sender: TObject);
    procedure frameGridImmobileGridExit(Sender: TObject);
    procedure framePkgMt3dmsRctcomboKineticChoiceChange(Sender: TObject);
    procedure jvspNPFShow(Sender: TObject);
    procedure tvPackagesMouseDown(Sender: TObject; Button: TMouseButton;
      Shift: TShiftState; X, Y: Integer);
    procedure frameGridMobileGridSetEditText(Sender: TObject; ACol,
      ARow: Integer; const Value: string);
    procedure EnableMt3dTimeControls(Sender: TObject);
    procedure frameGwtProcessrcSelectionControllerEnabledChange(
      Sender: TObject);
    procedure frameGridMobileGridStateChange(Sender: TObject; ACol,
      ARow: Integer; const Value: TCheckBoxState);
    procedure frameGridMobileGridButtonClick(Sender: TObject; ACol,
      ARow: Integer);
    procedure frameGridImmobileGridSelectCell(Sender: TObject; ACol,
      ARow: Integer; var CanSelect: Boolean);
    procedure TimerBringToFrontTimer(Sender: TObject);
    procedure frameGridMobileGridSelectCell(Sender: TObject; ACol,
      ARow: Integer; var CanSelect: Boolean);
    procedure OwhmFrameButtonClick(Sender: TObject; ACol,
        ARow: Integer);
    procedure framePkgFmp4SoilsrdgSoilsSelectCell(Sender: TObject; ACol,
      ARow: Integer; var CanSelect: Boolean);
  private
    IsLoaded: boolean;
    CurrentParameterType: TParameterType;
    FSteadyParameters: TModflowSteadyParameters;
    FHufParameters: THufModflowParameters;
    FTransientListParameters: TModflowTransientListParameters;
    FPackageList: TList;
    FSfrParameterInstances: TSfrParamInstances;
    FNewPackages: TTempPackageCollection;
    FCurrentPackages: TModflowPackages;
    FFrameNodeLinks: TList;
    FLinkDictionary: TDictionary<TframePackage, TFrameNodeLink>;
    FSettingNumber: Boolean;
    FGwtParentNode: TTreeNode;
    FMstNode: TTreeNode;
    FframePackageMSTObjectList: TframePackageMSTObjectList;
    FIstNode: TTreeNode;
    FframePackageIstObjectList: TframePackageIstObjectList;
    FframePkgSmsObjectList: TframePkgSmsObjectList;
    FGwtImsNode: TTreeNode;
    FTransportNode: TTreeNode;
    FChemNode: TTreeNode;
    procedure AssignParameterToRow(ActiveGrid: TRbwDataGrid4; RowIndex: Integer;
      Parameter: TModflowParameter);
    procedure SetData;
    function NewParameterName: string;
    procedure FillLpfTree;
    function ParentFrame(Sender: TObject): TframeListParameterDefinition;
    procedure FillTransientGrids;
    procedure AddPackagesToList(Packages: TModflowPackages);
    procedure framePkgLPFSelectedChange(Sender: TObject);
    procedure EnableSfrParameters;
    procedure GetSfrParamInstances;
    procedure SetSfrParamInstances;
    procedure AdjustDroppedWidth(OwnerComponent: TComponent);
    // @seealso(StorePackages);
    procedure ReadPackages;
    procedure SetpcSFR_ClientBorderWidth;
    procedure CheckLpfParameters;
    function PackageUsed(const ID: string): boolean;
    procedure CheckSfrParameterInstances;
    procedure FillHfbGrid;
    procedure InitializeFrame(Frame: TframeListParameterDefinition);
    procedure EnableEvtModpathOption;
    procedure EnableRchModpathOption;
    procedure ChdSelectedChange(Sender: TObject);
    procedure DrnSelectedChange(Sender: TObject);
    procedure GhbSelectedChange(Sender: TObject);
    procedure RivSelectedChange(Sender: TObject);
    procedure FillHufTree;
    procedure UpdateFlowParamGrid(Node: TTreeNode;
      ParameterFrame: TframeListParameterDefinition;
      ParameterCollection: TCollection;
      ParameterFrameController: TRbwController);
    procedure ActivateHufReferenceChoice;
    procedure EnableUzfVerticalKSource;
    // @seealso(ReadPackages);
    procedure StorePackages;
    procedure SetCurrentPackages(const Value: TModflowPackages);
    procedure NwtSelectedChange(Sender: TObject);
    procedure UpwSelectedChange(Sender: TObject);
    procedure Mt3dmsGcgSelectedChange(Sender: TObject);
    procedure Fmp4SelectedChange(Sender: TObject);
    procedure StrSelectedChange(Sender: TObject);
    function DuplicateParameterNames: boolean;
    function NodeToFrame(Node: TTreeNode): TFramePackage;
    function SelectNodeOfChildSelectedPackage(Node: TTreeNode): Boolean;
    procedure UzfSelectedChange(Sender: TObject);
    function AreParameterZonesOK: Boolean;
    procedure CheckSmsLinearSolver;
    function CheckGmgNwt: Boolean;
    function PackageNodeChecked(const ID: string): boolean;
    procedure CheckXt3dGnc;
    procedure CheckIPHDRY;
    procedure UpdateSpeciesNames;
    function ValidModpathChoice: Boolean;
    function ValidMT3D: Boolean;
    property CurrentPackages: TModflowPackages read FCurrentPackages
      write SetCurrentPackages;
    procedure StorePackageDataInFrames(Packages: TModflowPackages);
    procedure StoreFrameDataInPackages(Packages: TModflowPackages);
    procedure EnableLpfParameterControls;
    procedure Mt3dmsBasicSelectedChange(Sender: TObject);
    procedure CheckMt3dChemSpeciesDefined;
    procedure EnableFarmPrintRouting;
    procedure EnableConduitRecharge;
    procedure NilNodes;
    procedure EnableUnsatTransport;
    procedure EnableLakeTransport;
    procedure EnableStreamTransport;
    procedure EnableContaminantTreatmentSystem;
    procedure EnableChemSpecies;
    procedure UpdateGwtFrames;
    function CreateMstFrame: TframePackageMST;
    function CreateIstFrame: TframePackageIst;
    function CreateImsGwtFrame: TframePkgSms;
    procedure ShowImsPage(Sender: TObject);
    procedure EnableGwtPackages;
    function CheckMt3dSaturation: Boolean;
    function CheckGwtSaturation: Boolean;
//    function CheckMf6LakeOutlet: Boolean;
    { Private declarations }
  protected
    procedure CreateParams(var Params: TCreateParams); override;
  public
    constructor Create(AOwner: TComponent); override;
    destructor Destroy; override;
    procedure GetData;
    { Public declarations }
  end;

  // @name is used to reversibly change which packages are selected and
  // the properties of those packages.
  TUndoChangeLgrPackageSelection = class(TCustomUndoChangeParameters)
  private
    FOldPackages: TTempPackageCollection;
    FNewPackages: TTempPackageCollection;
    FOldHydroGeologicUnits: THydrogeologicUnits;
    FOldInterBlockTransmissivity: array of integer;
    FOldAquiferType: array of integer;
    FOldMobileComponents: TMobileChemSpeciesCollection;
    FNewMobileComponents: TMobileChemSpeciesCollection;
    FOldImmobileComponents: TChemSpeciesCollection;
    FNewImmobileComponents: TChemSpeciesCollection;
    FOldMt3dTimes: TMt3dmsTimeCollection;
    FComponentsSame: Boolean;
    procedure UpdateInterbedsInObjects;
    procedure UpdateLayerGroupProperties(BcfPackage: TModflowPackageSelection);
    procedure RecreateMt3dTimeLists;
    procedure SetMt3dCaption;
    procedure InvalidateActiveGrid;
  protected
    function Description: string; override;
  public
    Constructor Create(var NewSteadyParameters: TModflowSteadyParameters;
      var NewTransientParameters: TModflowTransientListParameters;
      var SfrParameterInstances: TSfrParamInstances;
      var NewHufModflowParameters: THufModflowParameters;
      var NewParamGroups: TPestParamGroups;
      var NewPackages: TTempPackageCollection);
    Destructor Destroy; override;
    procedure DoCommand; override;
    procedure Undo; override;
    procedure UpdateMt3dmsChemSpecies;
  end;

var
  frmModflowPackages: TfrmModflowPackages = nil;

implementation

uses Contnrs, JvListComb, frmGoPhastUnit, ScreenObjectUnit,

  frameSfrParamInstancesUnit, LayerStructureUnit, frmErrorsAndWarningsUnit,
  frmManageFluxObservationsUnit, Mt3dmsChemUnit,
  ModflowTimeUnit, ModflowDiscretizationWriterUnit, Mt3dUztRchUnit,
  Mt3dUztSatEtUnit, Mt3dUztUnsatEtUnit, Mt3dUzfSeepageUnit, Mt3dSftUnit,
  ModflowCsubUnit, System.Math, AbstractGridUnit,
  frmDisplayDataUnit;

resourcestring
  StrLPFParameters = 'LPF or NWT Parameters';
  rsChangePackages = 'change packages';
  StrOneOrMoreVKCBPar = 'One or more VKCB parameters are defined in the LPF ' +
  'or NWT package but they won''t be used because all the layers are simulat' +
  'ed.';
  StrOneOrMoreVKParam = 'One or more VK parameters are defined in the LPF or' +
  ' NWT package but they won''t be used because there is only one layer in t' +
  'he model.';
  StrOneOrMoreVKParam2 = 'One or more VK parameters are defined in the LPF or' +
  ' NWT package but they won''t be used because vertical anisotropy is used ' +
  'for all the layers. Check the MODFLOW Layers dialog box if you want to us' +
  'e vertical anisotropy.';
  StrOneOrMoreVANIPar = 'One or more VANI parameters are defined in the LPF ' +
  'or NWT package but they won''t be used because there is only one layer in' +
  ' the model.';
  StrOneOrMoreVANIPar2 = 'One or more VANI parameters are defined in the LPF' +
  ' or NWT package but they won''t be used because vertical hydraulic hydrau' +
  'lic conductivity is used for all the layers. Check the MODFLOW Layers dia' +
  'log box if you want to use vertical anisotropy.';
  StrOneOrMoreSSParam = 'One or more SS parameters are defined in the LPF or' +
  ' NWT package but they won''t be used because there are no transient stres' +
  's periods in the model.';
  StrOneOrMoreSYParam = 'One or more SY parameters are defined in the LPF or' +
  ' NWT package but they won''t be used because there are no transient stres' +
  's periods in the model.';
  StrOneOrMoreSYParam2 = 'One or more SY parameters are defined in the LPF o' +
  'r NWT package but they won''t be used because all of the layers are confi' +
  'ned.';
  StrHKHorizontalHydra = 'HK (horizontal hydraulic conductivity)';
  StrHANIHorizontalAni = 'HANI (horizontal anisotropy)';
  StrVKVerticalHydraul = 'VK (vertical hydraulic conductivity)';
  StrVANIVerticalAniso = 'VANI (vertical anisotropy)';
  StrSSSpecificStorage = 'SS (specific storage)';
  StrSYSpecificYield = 'SY (specific yield)';
  StrSYTPStorageCoeffi = 'SYTP (storage coefficient for the top active cell)';
  StrKDEPHydraulicCond = 'KDEP (hydraulic conductivity depth-dependence coef' +
  'ficient)';
  StrLVDAHorizontalAni = 'LVDA (horizontal anisotropy angle)';
  StrVKCBVerticalHydra = 'VKCB (vertical hydraulic conductivity of confining' +
  ' layer)';
  StrSFRParameters = 'SFR Parameters';
  StrTheSFRParameterNa = 'The SFR parameter named "%s" can''t be used becaus' +
  'e no parameter instances are defined for it.';
  StrNoChemicalSpecies = 'No chemical species defined';
  StrMT3DMSIsActiveBut = 'MT3DMS is active but no chemical species have been' +
  ' defined.';
  StrInOrderToGenerate = 'In order to generate the flow-transport link file ' +
  'required by MT3D, you will need to generate the MODFLOW input files and' +
  ' run MODFLOW again.';
  FormatStr = 'Number of %s parameters';
  StrSWasNotFound = '%s was not found.';
//  StrYouWillNeedToRun = 'You will need to run MODFLOW again one time before ' +
//  'running MODPATH.';
  StrFarmProcess = 'Farm Process';
  StrConduitFlowProcess = 'Conduit Flow Process';
  StrMODFLOWDoesNotAll = 'MODFLOW does not allow the MNW1 and MNW2 packages ' +
  'to both be used in the same model.';
  StrYouWillNeedToDef = 'You will need to define at least one transient stre' +
  'ss period for the storage properties to be used.';
  StrDuplicateParameter = 'Duplicate parameter names are not allowed even if' +
  ' they are in different packages. Please correct the following duplicate p' +
  'arameter names. '#13#10'%0:s';
  StrAtLeastTwoOfYour = 'At least two of your MODFLOW parameters are of the ' +
  'same type and for at least one of them, no zones are used. This is usuall' +
  'y a mistake. Parameters with no zones will apply to all cells in the mode' +
  'l. You can use zones to restrict a parameter to particular cells. Do you ' +
  'want to fix this before continuing?';
  StrTheGMGPackageIsN = 'The GMG package is not included in MODFLOW-NWT. Do ' +
  'you want to choose a different solver?';
  StrYouCanNotUseTheGnc = 'You can not use the GNC package and the XT3D opti' +
  'on in the NPF package in the same model. You should fix this before ' +
  'attempting to run MODFLOW.';
  StrBecauseYouAreUsin = 'Because you are using the Upstream Weighting packa' +
  'ge (UPW) along with one or more observation packages. You should disable ' +
  'the option in the UPW package to print HDRY in dry cells.';
  StrBecauseYouAreChan = 'Because you are changing the THICKSTRT option in t' +
  'he NPF package, you may wish to change the default formula for the Confin' +
  'ed data set too. When the THICKSTART option is used, an appropriate formu' +
  'la would be ' + slinebreak + '"CellType <> 0)".' + slinebreak +
  'When it is not used, an appropriate formu' +
  'la would be ' + slinebreak + '"CellType > 0)".';
  StrMonodAndFirstorde = 'Monod and first-order chain reactions are only ava' +
  'ilable with MT3D-USGS. You can change your selected version of MT3D in th' +
  'e MT3D Basic package.';
  StrFirstorderChainRe = 'First-order chain reactions require at least two c' +
  'hemical species in the MT3D Basic package.';
  StrMT3DCanOnlyBeUse = 'MT3D can only be used with structured grids.';
  StrMSTMobileStorage = 'MST: Mobile Storage and Transfer Packages';
  StrISTImmobileStorag = 'IST: Immobile Storage and Transfer Packages';
  StrImsGWT = 'IMS-GWT: Iterative Model Sovler Packages';
  StrIMSIterativeModel = 'IMS: Iterative Model Solver Packages';
  StrGroundwaterTranspor = 'Groundwater Transport';
  StrChemSpecies = 'Chem Species';
  StrChemSpeciesMT3DA = 'Chem Species (MT3D and GWT)';
  StrTheSaveSaturation = 'The Save Saturation option in the NPF package is i' +
  'ncompatible with MT3D. Do you want to fix this?';
  StrTheSaveSaturationGwt = 'The Save Saturation option in the NPF package i' +
  's required with GWT when the transport simulation is separate from the fl' +
  'ow simulation. Do you want to fix this?';
//  StrSurfaceWaterRouting = 'Surface-Water Routing';

{$R *.dfm}

type
  TParameterColumns = (pcName, pcValue, pcUseZone, pcUseMultiplier);
