inherited frmModflowPackages: TfrmModflowPackages
  HelpType = htKeyword
  HelpKeyword = 'MODFLOW_Packages_Dialog_Box'
  Caption = 'MODFLOW Packages and Programs'
  ClientHeight = 554
  ClientWidth = 770
  OnActivate = jvplPackagesChange
  OnClose = FormClose
  OnResize = FormResize
  ExplicitWidth = 786
  ExplicitHeight = 593
  TextHeight = 18
  object JvNetscapeSplitter1: TJvNetscapeSplitter
    Left = 177
    Top = 0
    Height = 513
    Align = alLeft
    MinSize = 1
    Maximized = False
    Minimized = False
    ButtonCursor = crDefault
    ExplicitLeft = 121
    ExplicitTop = -14
    ExplicitHeight = 252
  end
  object jvplPackages: TJvPageList
    Left = 187
    Top = 0
    Width = 583
    Height = 513
    ActivePage = jvspNPF
    PropagateEnable = False
    Align = alClient
    OnChange = jvplPackagesChange
    object jvspLPF: TJvStandardPage
      Left = 0
      Top = 0
      Width = 583
      Height = 513
      HelpType = htKeyword
      HelpKeyword = 'LPF_Layer_Property_Flow_Package'
      Caption = 'LPF (Layer Property Flow)'
      object splitLprParameter: TJvNetscapeSplitter
        Left = 121
        Top = 291
        Height = 222
        Align = alLeft
        MinSize = 1
        Maximized = False
        Minimized = False
        ButtonCursor = crDefault
        ExplicitLeft = 256
        ExplicitTop = 96
        ExplicitHeight = 100
      end
      object JvNetscapeSplitter3: TJvNetscapeSplitter
        Left = 0
        Top = 281
        Width = 583
        Height = 10
        Cursor = crVSplit
        Align = alTop
        MinSize = 1
        Maximized = False
        Minimized = False
        ButtonCursor = crDefault
        ExplicitLeft = -4
        ExplicitTop = 283
        ExplicitWidth = 605
      end
      inline frameLpfParameterDefinition: TframeArrayParameterDefinition
        Left = 131
        Top = 291
        Width = 452
        Height = 222
        Align = alClient
        Enabled = False
        TabOrder = 2
        TabStop = True
        ExplicitLeft = 131
        ExplicitTop = 291
        ExplicitWidth = 452
        ExplicitHeight = 222
        inherited pnlParameterCount: TPanel
          Top = 174
          Width = 452
          ExplicitTop = 174
          ExplicitWidth = 452
          inherited lblNumParameters: TLabel
            Width = 156
            Height = 18
            ExplicitWidth = 156
            ExplicitHeight = 18
          end
          inherited btnDelete: TBitBtn
            Left = 237
            Top = 9
            Enabled = True
            TabOrder = 1
            OnClick = frameParameterDefinition_btnDeleteClick
            ExplicitLeft = 237
            ExplicitTop = 9
          end
          inherited seNumberOfParameters: TJvSpinEdit
            Height = 26
            Enabled = True
            TabOrder = 0
            OnChange = frameParameterDefinition_seNumberOfParametersChange
            ExplicitHeight = 26
          end
        end
        inherited dgParameters: TRbwDataGrid4
          Width = 446
          Height = 111
          Enabled = True
          Columns = <
            item
              AutoAdjustRowHeights = False
              AutoAdjustCaptionRowHeights = False
              ButtonCaption = '...'
              ButtonFont.Charset = DEFAULT_CHARSET
              ButtonFont.Color = clWindowText
              ButtonFont.Height = -11
              ButtonFont.Name = 'Tahoma'
              ButtonFont.Style = []
              ButtonUsed = False
              ButtonWidth = 20
              CheckMax = False
              CheckMin = False
              ComboUsed = False
              Format = rcf4String
              LimitToList = False
              MaxLength = 10
              ParentButtonFont = False
              WordWrapCaptions = False
              WordWrapCells = False
              CaseSensitivePicklist = False
              CheckStyle = csCheck
              AutoAdjustColWidths = True
            end
            item
              AutoAdjustRowHeights = False
              AutoAdjustCaptionRowHeights = False
              ButtonCaption = '...'
              ButtonFont.Charset = DEFAULT_CHARSET
              ButtonFont.Color = clWindowText
              ButtonFont.Height = -11
              ButtonFont.Name = 'Tahoma'
              ButtonFont.Style = []
              ButtonUsed = False
              ButtonWidth = 20
              CheckMax = False
              CheckMin = False
              ComboUsed = False
              Format = rcf4Real
              LimitToList = False
              MaxLength = 0
              ParentButtonFont = False
              WordWrapCaptions = False
              WordWrapCells = False
              CaseSensitivePicklist = False
              CheckStyle = csCheck
              AutoAdjustColWidths = True
            end
            item
              AutoAdjustRowHeights = False
              AutoAdjustCaptionRowHeights = False
              ButtonCaption = '...'
              ButtonFont.Charset = DEFAULT_CHARSET
              ButtonFont.Color = clWindowText
              ButtonFont.Height = -11
              ButtonFont.Name = 'Tahoma'
              ButtonFont.Style = []
              ButtonUsed = False
              ButtonWidth = 20
              CheckMax = False
              CheckMin = False
              ComboUsed = False
              Format = rcf4Boolean
              LimitToList = False
              MaxLength = 0
              ParentButtonFont = False
              WordWrapCaptions = False
              WordWrapCells = False
              CaseSensitivePicklist = False
              CheckStyle = csCheck
              AutoAdjustColWidths = True
            end
            item
              AutoAdjustRowHeights = False
              AutoAdjustCaptionRowHeights = False
              ButtonCaption = '...'
              ButtonFont.Charset = DEFAULT_CHARSET
              ButtonFont.Color = clWindowText
              ButtonFont.Height = -11
              ButtonFont.Name = 'Tahoma'
              ButtonFont.Style = []
              ButtonUsed = False
              ButtonWidth = 20
              CheckMax = False
              CheckMin = False
              ComboUsed = False
              Format = rcf4Boolean
              LimitToList = False
              MaxLength = 0
              ParentButtonFont = False
              WordWrapCaptions = False
              WordWrapCells = False
              CaseSensitivePicklist = False
              CheckStyle = csCheck
              AutoAdjustColWidths = True
            end>
          ExplicitWidth = 446
          ExplicitHeight = 111
        end
        inherited pnlTop: TPanel
          Width = 452
          ExplicitWidth = 452
          inherited lblParamValue: TLabel
            Width = 101
            Height = 18
            ExplicitWidth = 101
            ExplicitHeight = 18
          end
        end
      end
      object tvLpfParameterTypes: TTreeView
        Left = 0
        Top = 291
        Width = 121
        Height = 222
        Align = alLeft
        Enabled = False
        HideSelection = False
        Indent = 20
        ReadOnly = True
        TabOrder = 1
        OnChange = tvLpfParameterTypesChange
      end
      inline framePkgLPF: TframePackageLpf
        Left = 0
        Top = 0
        Width = 583
        Height = 281
        Align = alTop
        TabOrder = 0
        TabStop = True
        ExplicitWidth = 583
        ExplicitHeight = 281
        inherited lblComments: TLabel
          Width = 76
          Height = 18
          ExplicitWidth = 76
          ExplicitHeight = 18
        end
        inherited lblPackage: TLabel
          Width = 78
          Height = 18
          ExplicitWidth = 78
          ExplicitHeight = 18
        end
        inherited memoComments: TMemo
          Width = 544
          ExplicitWidth = 544
        end
        inherited rdgOptions: TRbwDataGrid4
          Width = 544
          ExplicitWidth = 544
        end
        inherited rcSelectionController: TRbwController
          ControlList = <
            item
              Control = framePkgLPF.lblComments
            end
            item
              Control = framePkgLPF.memoComments
            end
            item
              Control = framePkgLPF.rdgOptions
            end>
          OnEnabledChange = framePkgLPFrcSelectionControllerEnabledChange
        end
      end
    end
    object jvspHUF: TJvStandardPage
      Left = 0
      Top = 0
      Width = 583
      Height = 513
      HelpType = htKeyword
      HelpKeyword = 'HUF2_Hydrogeologic_Unit_Flow'
      Caption = 'jvspHUF'
      object JvNetscapeSplitter4: TJvNetscapeSplitter
        Left = 0
        Top = 275
        Width = 583
        Height = 10
        Cursor = crVSplit
        Align = alTop
        MinSize = 1
        Maximized = False
        Minimized = False
        ButtonCursor = crDefault
        ExplicitTop = 204
        ExplicitWidth = 605
      end
      object JvNetscapeSplitter5: TJvNetscapeSplitter
        Left = 121
        Top = 285
        Height = 228
        Align = alLeft
        MinSize = 1
        Maximized = False
        Minimized = False
        ButtonCursor = crDefault
        ExplicitLeft = 256
        ExplicitTop = 96
        ExplicitHeight = 100
      end
      inline framePkgHuf: TframePackageHuf
        Left = 0
        Top = 0
        Width = 583
        Height = 275
        Align = alTop
        TabOrder = 0
        TabStop = True
        ExplicitWidth = 583
        DesignSize = (
          583
          275)
        inherited lblComments: TLabel
          Width = 76
          Height = 18
          ExplicitWidth = 76
          ExplicitHeight = 18
        end
        inherited lblPackage: TLabel
          Width = 78
          Height = 18
          ExplicitWidth = 78
          ExplicitHeight = 18
        end
        inherited memoComments: TMemo
          Width = 544
          ExplicitWidth = 544
        end
        inherited cbSaveHeads: TCheckBox
          Width = 441
          ExplicitWidth = 441
        end
        inherited cbSaveFlows: TCheckBox
          Width = 417
          TabOrder = 3
          ExplicitWidth = 417
        end
        inherited rgElevationSurfaceChoice: TRadioGroup
          Width = 313
          TabOrder = 2
          ExplicitWidth = 313
        end
        inherited rcSelectionController: TRbwController
          ControlList = <
            item
              Control = framePkgHuf.lblComments
            end
            item
              Control = framePkgHuf.memoComments
            end
            item
              Control = framePkgHuf.cbSaveHeads
            end
            item
              Control = framePkgHuf.cbSaveFlows
            end
            item
              Control = frameHufParameterDefinition
            end
            item
              Control = tvHufParameterTypes
            end>
          OnEnabledChange = framePkgHufrcSelectionControllerEnabledChange
        end
      end
      object tvHufParameterTypes: TTreeView
        Left = 0
        Top = 285
        Width = 121
        Height = 228
        Align = alLeft
        Enabled = False
        HideSelection = False
        Indent = 20
        ReadOnly = True
        TabOrder = 1
        OnChange = tvHufParameterTypesChange
      end
      inline frameHufParameterDefinition: TframeListParameterDefinition
        Left = 131
        Top = 285
        Width = 452
        Height = 228
        Align = alClient
        Enabled = False
        TabOrder = 2
        TabStop = True
        ExplicitLeft = 131
        ExplicitTop = 285
        ExplicitWidth = 452
        ExplicitHeight = 228
        inherited pnlParameterCount: TPanel
          Top = 180
          Width = 452
          ExplicitTop = 180
          ExplicitWidth = 452
          inherited lblNumParameters: TLabel
            Width = 156
            Height = 18
            ExplicitWidth = 156
            ExplicitHeight = 18
          end
          inherited btnDelete: TBitBtn
            Left = 347
            Top = 9
            Enabled = True
            TabOrder = 1
            OnClick = frameParameterDefinition_btnDeleteClick
            ExplicitLeft = 347
            ExplicitTop = 9
          end
          inherited seNumberOfParameters: TJvSpinEdit
            Top = 3
            Height = 26
            TabOrder = 0
            OnChange = frameParameterDefinition_seNumberOfParametersChange
            ExplicitTop = 3
            ExplicitHeight = 26
          end
        end
        inherited dgParameters: TRbwDataGrid4
          Width = 446
          Height = 174
          Enabled = True
          ExplicitWidth = 446
          ExplicitHeight = 174
        end
      end
    end
    object jvspCHD: TJvStandardPage
      Left = 0
      Top = 0
      Width = 583
      Height = 513
      HelpType = htKeyword
      HelpKeyword = 'CHD_Time_Variant_Specified_Head'
      Caption = 'CHD (Time-Variant Specified-Head Package)'
      inline framePkgCHD: TframePackage
        Left = 0
        Top = 0
        Width = 583
        Height = 161
        Align = alTop
        TabOrder = 0
        TabStop = True
        ExplicitWidth = 583
        inherited lblComments: TLabel
          Width = 76
          Height = 18
          ExplicitWidth = 76
          ExplicitHeight = 18
        end
        inherited lblPackage: TLabel
          Width = 78
          Height = 18
          ExplicitWidth = 78
          ExplicitHeight = 18
        end
        inherited memoComments: TMemo
          Width = 552
          ExplicitWidth = 552
        end
        inherited rcSelectionController: TRbwController
          ControlList = <
            item
              Control = framePkgCHD.lblComments
            end
            item
              Control = framePkgCHD.memoComments
            end
            item
              Control = frameChdParameterDefinition
            end>
        end
      end
      inline frameChdParameterDefinition: TframeListParameterDefinition
        Left = 0
        Top = 161
        Width = 583
        Height = 352
        Align = alClient
        Enabled = False
        TabOrder = 1
        TabStop = True
        ExplicitTop = 161
        ExplicitWidth = 583
        ExplicitHeight = 352
        inherited pnlParameterCount: TPanel
          Top = 304
          Width = 583
          ExplicitTop = 304
          ExplicitWidth = 583
          inherited lblNumParameters: TLabel
            Width = 156
            Height = 18
            ExplicitWidth = 156
            ExplicitHeight = 18
          end
          inherited btnDelete: TBitBtn
            Left = 477
            Top = 9
            TabOrder = 1
            OnClick = frameParameterDefinition_btnDeleteClick
            ExplicitLeft = 477
            ExplicitTop = 9
          end
          inherited seNumberOfParameters: TJvSpinEdit
            Height = 26
            TabOrder = 0
            OnChange = frameParameterDefinition_seNumberOfParametersChange
            ExplicitHeight = 26
          end
        end
        inherited dgParameters: TRbwDataGrid4
          Width = 577
          Height = 298
          ExplicitWidth = 577
          ExplicitHeight = 298
        end
      end
    end
    object jvspGHB: TJvStandardPage
      Left = 0
      Top = 0
      Width = 583
      Height = 513
      HelpType = htKeyword
      HelpKeyword = 'GHB_General_Head_Boundary_Package'
      Caption = 'GHB (General Head Boundary)'
      inline framePkgGHB: TframePackage
        Left = 0
        Top = 0
        Width = 583
        Height = 161
        Align = alTop
        TabOrder = 0
        TabStop = True
        ExplicitWidth = 583
        inherited lblComments: TLabel
          Width = 76
          Height = 18
          ExplicitWidth = 76
          ExplicitHeight = 18
        end
        inherited lblPackage: TLabel
          Width = 78
          Height = 18
          ExplicitWidth = 78
          ExplicitHeight = 18
        end
        inherited memoComments: TMemo
          Width = 552
          ExplicitWidth = 552
        end
        inherited rcSelectionController: TRbwController
          ControlList = <
            item
              Control = framePkgGHB.lblComments
            end
            item
              Control = framePkgGHB.memoComments
            end
            item
              Control = frameGhbParameterDefinition
            end>
        end
      end
      inline frameGhbParameterDefinition: TframeListParameterDefinition
        Left = 0
        Top = 161
        Width = 583
        Height = 352
        Align = alClient
        Enabled = False
        TabOrder = 1
        TabStop = True
        ExplicitTop = 161
        ExplicitWidth = 583
        ExplicitHeight = 352
        inherited pnlParameterCount: TPanel
          Top = 304
          Width = 583
          ExplicitTop = 304
          ExplicitWidth = 583
          inherited lblNumParameters: TLabel
            Width = 156
            Height = 18
            ExplicitWidth = 156
            ExplicitHeight = 18
          end
          inherited btnDelete: TBitBtn
            Left = 477
            OnClick = frameParameterDefinition_btnDeleteClick
            ExplicitLeft = 477
          end
          inherited seNumberOfParameters: TJvSpinEdit
            Height = 26
            OnChange = frameParameterDefinition_seNumberOfParametersChange
            ExplicitHeight = 26
          end
        end
        inherited dgParameters: TRbwDataGrid4
          Width = 577
          Height = 298
          ExplicitWidth = 577
          ExplicitHeight = 298
        end
      end
    end
    object jvspPCG: TJvStandardPage
      Left = 0
      Top = 0
      Width = 583
      Height = 513
      HelpType = htKeyword
      HelpKeyword = 'PCG_Preconditioned_Conjugate_Gradiant'
      Caption = 'PCG (Preconditioned Conjugate-Gradient)'
      inline framePCG: TframePCG
        Left = 0
        Top = 0
        Width = 583
        Height = 513
        Align = alClient
        Anchors = [akLeft, akTop, akBottom]
        TabOrder = 0
        TabStop = True
        ExplicitWidth = 583
        ExplicitHeight = 513
        DesignSize = (
          583
          513)
        inherited lblComments: TLabel
          Width = 76
          Height = 18
          ExplicitWidth = 76
          ExplicitHeight = 18
        end
        inherited lblPackage: TLabel
          Width = 78
          Height = 18
          ExplicitWidth = 78
          ExplicitHeight = 18
        end
        inherited lblPCGMaxOuter: TLabel
          Top = 126
          Width = 289
          Height = 18
          ExplicitTop = 127
          ExplicitWidth = 289
          ExplicitHeight = 18
        end
        inherited lblPCGMaxInner: TLabel
          Top = 154
          Width = 273
          Height = 18
          ExplicitTop = 155
          ExplicitWidth = 273
          ExplicitHeight = 18
        end
        inherited lblPCGMethod: TLabel
          Top = 182
          Width = 296
          Height = 18
          ExplicitTop = 183
          ExplicitWidth = 296
          ExplicitHeight = 18
        end
        inherited lblPCGMaxChangeHead: TLabel
          Top = 294
          Width = 261
          Height = 18
          ExplicitTop = 306
          ExplicitWidth = 261
          ExplicitHeight = 18
        end
        inherited lblPCGMaxResidual: TLabel
          Top = 322
          Width = 210
          Height = 18
          ExplicitTop = 334
          ExplicitWidth = 210
          ExplicitHeight = 18
        end
        inherited lblPCGRelaxation: TLabel
          Top = 350
          Width = 220
          Height = 18
          ExplicitTop = 362
          ExplicitWidth = 220
          ExplicitHeight = 18
        end
        inherited lblPCGMaxEigen: TLabel
          Top = 378
          Width = 320
          Height = 18
          ExplicitTop = 390
          ExplicitWidth = 320
          ExplicitHeight = 18
        end
        inherited lblPCGPrintInterval: TLabel
          Top = 405
          Width = 184
          Height = 18
          ExplicitTop = 417
          ExplicitWidth = 184
          ExplicitHeight = 18
        end
        inherited lblPCGPrintControl: TLabel
          Top = 433
          Width = 189
          Height = 18
          ExplicitTop = 445
          ExplicitWidth = 189
          ExplicitHeight = 18
        end
        inherited lblPCGDampingFactor: TLabel
          Top = 460
          Width = 207
          Height = 18
          ExplicitTop = 472
          ExplicitWidth = 207
          ExplicitHeight = 18
        end
        inherited lblPCGDampPcgT: TLabel
          Top = 488
          Width = 280
          Height = 18
          ExplicitTop = 489
          ExplicitWidth = 280
          ExplicitHeight = 18
        end
        inherited memoComments: TMemo
          Left = 6
          Top = 58
          Width = 566
          Height = 59
          ExplicitLeft = 6
          ExplicitTop = 58
          ExplicitWidth = 566
          ExplicitHeight = 59
        end
        inherited rdePCGMaxOuter: TRbwDataEntry
          Left = 338
          Top = 123
          Width = 242
          ExplicitLeft = 338
          ExplicitTop = 123
          ExplicitWidth = 242
        end
        inherited rdePCGMaxInner: TRbwDataEntry
          Left = 338
          Top = 151
          Width = 242
          ExplicitLeft = 338
          ExplicitTop = 151
          ExplicitWidth = 242
        end
        inherited comboPCGPrecondMeth: TJvImageComboBox
          Left = 338
          Top = 179
          Width = 242
          Height = 26
          ExplicitLeft = 338
          ExplicitTop = 179
          ExplicitWidth = 242
          ExplicitHeight = 26
        end
        inherited rdePCGMaxHeadChange: TRbwDataEntry
          Left = 338
          Top = 291
          Width = 242
          ExplicitLeft = 338
          ExplicitTop = 291
          ExplicitWidth = 242
        end
        inherited rdePCGMaxResChange: TRbwDataEntry
          Left = 338
          Top = 319
          Width = 242
          ExplicitLeft = 338
          ExplicitTop = 319
          ExplicitWidth = 242
        end
        inherited rdePCGRelax: TRbwDataEntry
          Left = 338
          Top = 347
          Width = 242
          ExplicitLeft = 338
          ExplicitTop = 347
          ExplicitWidth = 242
        end
        inherited comboPCGEigenValue: TJvImageComboBox
          Left = 338
          Top = 375
          Width = 242
          Height = 26
          ExplicitLeft = 338
          ExplicitTop = 375
          ExplicitWidth = 242
          ExplicitHeight = 26
        end
        inherited rdePCGPrintInt: TRbwDataEntry
          Left = 338
          Top = 402
          Width = 242
          ExplicitLeft = 338
          ExplicitTop = 402
          ExplicitWidth = 242
        end
        inherited comboPCGPrint: TJvImageComboBox
          Left = 338
          Top = 430
          Width = 242
          Height = 26
          ExplicitLeft = 338
          ExplicitTop = 430
          ExplicitWidth = 242
          ExplicitHeight = 26
        end
        inherited rdePCGDamp: TRbwDataEntry
          Left = 338
          Top = 457
          Width = 242
          ExplicitLeft = 338
          ExplicitTop = 457
          ExplicitWidth = 242
        end
        inherited rdePCGDampPcgT: TRbwDataEntry
          Left = 338
          Top = 485
          Width = 242
          ExplicitLeft = 338
          ExplicitTop = 485
          ExplicitWidth = 242
        end
        inherited gbIHCOFADD: TGroupBox
          Top = 201
          Anchors = [akLeft, akBottom]
          ExplicitTop = 201
        end
        inherited rcSelectionController: TRbwController
          ControlList = <
            item
              Control = framePCG.lblComments
            end
            item
              Control = framePCG.memoComments
            end
            item
              Control = framePCG.comboPCGPrecondMeth
            end
            item
              Control = framePCG.comboPCGPrint
            end
            item
              Control = framePCG.rdePCGDamp
            end
            item
              Control = framePCG.rdePCGMaxHeadChange
            end
            item
              Control = framePCG.rdePCGMaxInner
            end
            item
              Control = framePCG.rdePCGMaxOuter
            end
            item
              Control = framePCG.rdePCGMaxResChange
            end
            item
              Control = framePCG.rdePCGPrintInt
            end
            item
              Control = framePCG.rdePCGDampPcgT
            end
            item
              Control = framePCG.rbIHCOFADD_0
            end
            item
              Control = framePCG.rbIHCOFADD_1
            end>
        end
      end
    end
    object jvspWEL: TJvStandardPage
      Left = 0
      Top = 0
      Width = 583
      Height = 513
      HelpType = htKeyword
      HelpKeyword = 'WEL_Well_Package_Pane'
      Caption = 'jvspWEL'
      inline framePkgWEL: TframePackageWell
        Left = 0
        Top = 0
        Width = 583
        Height = 241
        Align = alTop
        TabOrder = 0
        TabStop = True
        ExplicitWidth = 583
        ExplicitHeight = 241
        DesignSize = (
          583
          241)
        inherited lblComments: TLabel
          Width = 76
          Height = 18
          ExplicitWidth = 76
          ExplicitHeight = 18
        end
        inherited lblPackage: TLabel
          Width = 78
          Height = 18
          ExplicitWidth = 78
          ExplicitHeight = 18
        end
        inherited lblPhiRamp: TLabel
          Width = 382
          Height = 18
          ExplicitWidth = 382
          ExplicitHeight = 18
        end
        inherited memoComments: TMemo
          Width = 544
          Height = 124
          ExplicitWidth = 544
          ExplicitHeight = 124
        end
        inherited cbTabfiles: TCheckBox
          Width = 569
          ExplicitWidth = 569
        end
        inherited rcSelectionController: TRbwController
          ControlList = <
            item
              Control = framePkgWEL.lblComments
            end
            item
              Control = framePkgWEL.memoComments
            end
            item
              Control = framePkgWEL.rdePhiRamp
            end
            item
              Control = frameWelParameterDefinition
            end
            item
              Control = framePkgWEL.cbTabfiles
            end>
          Left = 408
          Top = 96
        end
      end
      inline frameWelParameterDefinition: TframeListParameterDefinition
        Left = 0
        Top = 241
        Width = 583
        Height = 272
        Align = alClient
        Enabled = False
        TabOrder = 1
        TabStop = True
        ExplicitTop = 241
        ExplicitWidth = 583
        ExplicitHeight = 272
        inherited pnlParameterCount: TPanel
          Top = 224
          Width = 583
          ExplicitTop = 224
          ExplicitWidth = 583
          inherited lblNumParameters: TLabel
            Width = 156
            Height = 18
            ExplicitWidth = 156
            ExplicitHeight = 18
          end
          inherited btnDelete: TBitBtn
            Left = 477
            OnClick = frameParameterDefinition_btnDeleteClick
            ExplicitLeft = 477
          end
          inherited seNumberOfParameters: TJvSpinEdit
            Height = 26
            OnChange = frameParameterDefinition_seNumberOfParametersChange
            ExplicitHeight = 26
          end
        end
        inherited dgParameters: TRbwDataGrid4
          Width = 577
          Height = 218
          ExplicitWidth = 577
          ExplicitHeight = 218
        end
      end
    end
    object jvspRIV: TJvStandardPage
      Left = 0
      Top = 0
      Width = 583
      Height = 513
      HelpType = htKeyword
      HelpKeyword = 'RIV_River_Package'
      Caption = 'jvspRIV'
      inline framePkgRIV: TframePackage
        Left = 0
        Top = 0
        Width = 583
        Height = 161
        Align = alTop
        TabOrder = 0
        TabStop = True
        ExplicitWidth = 583
        inherited lblComments: TLabel
          Width = 76
          Height = 18
          ExplicitWidth = 76
          ExplicitHeight = 18
        end
        inherited lblPackage: TLabel
          Width = 78
          Height = 18
          ExplicitWidth = 78
          ExplicitHeight = 18
        end
        inherited memoComments: TMemo
          Width = 552
          ExplicitWidth = 552
        end
        inherited rcSelectionController: TRbwController
          ControlList = <
            item
              Control = framePkgRIV.lblComments
            end
            item
              Control = framePkgRIV.memoComments
            end
            item
              Control = frameRivParameterDefinition
            end>
        end
      end
      inline frameRivParameterDefinition: TframeListParameterDefinition
        Left = 0
        Top = 161
        Width = 583
        Height = 352
        Align = alClient
        Enabled = False
        TabOrder = 1
        TabStop = True
        ExplicitTop = 161
        ExplicitWidth = 583
        ExplicitHeight = 352
        inherited pnlParameterCount: TPanel
          Top = 304
          Width = 583
          ExplicitTop = 304
          ExplicitWidth = 583
          inherited lblNumParameters: TLabel
            Width = 156
            Height = 18
            ExplicitWidth = 156
            ExplicitHeight = 18
          end
          inherited btnDelete: TBitBtn
            Left = 477
            OnClick = frameParameterDefinition_btnDeleteClick
            ExplicitLeft = 477
          end
          inherited seNumberOfParameters: TJvSpinEdit
            Height = 26
            OnChange = frameParameterDefinition_seNumberOfParametersChange
            ExplicitHeight = 26
          end
        end