unit ModflowGhbUnit;

interface

uses Windows, ZLib, SysUtils, Classes, Contnrs, ModflowBoundaryUnit,
  OrderedCollectionUnit, DataSetUnit, ModflowCellUnit, FormulaManagerUnit,
  SubscriptionUnit, SparseDataSets, RbwParser, GoPhastTypes,
  ModflowTransientListParameterUnit;

type
  TGhbRecord = record
    Cell: TCellLocation;
    Conductance: double;
    BoundaryHead: double;
    StartingTime: double;
    EndingTime: double;
    ConductanceAnnotation: string;
    BoundaryHeadAnnotation: string;
    TimeSeriesName: string;
    MvrUsed: Boolean;
    MvrIndex: Integer;
    ConductanceParameterName: string;
    ConductanceParameterValue: double;
    ConductancePest: string;
    BoundaryHeadPest: string;
    ConductancePestSeriesName: string;
    BoundaryHeadPestSeriesName: string;
    ConductancePestSeriesMethod: TPestParamMethod;
    BoundaryHeadPestSeriesMethod: TPestParamMethod;
    procedure Cache(Comp: TCompressionStream; Strings: TStringList);
    procedure Restore(Decomp: TDecompressionStream; Annotations: TStringList);
    procedure RecordStrings(Strings: TStringList);
  end;

  TGhbArray = array of TGhbRecord;

  TGhbStorage = class(TCustomBoundaryStorage)
  private
    FGhbArray: TGhbArray;
    function GetGhbArray: TGhbArray;
  protected
    procedure Restore(DecompressionStream: TDecompressionStream; Annotations: TStringList); override;
    procedure Store(Compressor: TCompressionStream); override;
    procedure Clear; override;
  public
    property GhbArray: TGhbArray read GetGhbArray;
  end;

  // @name represents a MODFLOW General Head boundary for one time interval.
  // @name is stored by @link(TGhbCollection).
  TGhbItem = class(TCustomModflowBoundaryItem)
  private
    // See @link(BoundaryHead).
    FBoundaryHead: TFormulaObject;
    // See @link(Conductance).
    FConductance: TFormulaObject;
    // See @link(BoundaryHead).
    procedure SetBoundaryHead(const Value: string);
    // See @link(Conductance).
    procedure SetConductance(const Value: string);
    function GetBoundaryHead: string;
    function GetConductance: string;
  protected
    procedure AssignObserverEvents(Collection: TCollection); override;
    procedure CreateFormulaObjects; override;
    procedure GetPropertyObserver(Sender: TObject; List: TList); override;
    procedure RemoveFormulaObjects; override;
    // See @link(BoundaryFormula).
    function GetBoundaryFormula(Index: integer): string; override;
    // See @link(BoundaryFormula).
    procedure SetBoundaryFormula(Index: integer; const Value: string); override;
    // @name checks whether AnotherItem is the same as the current @classname.
    function IsSame(AnotherItem: TOrderedItem): boolean; override;
    procedure InvalidateModel; override;
    function BoundaryFormulaCount: integer; override;
    function GetConductanceIndex: Integer; override;
  public
    Destructor Destroy; override;
  published
    // @name copies Source to this @classname.
    procedure Assign(Source: TPersistent);override;
    // @name is the formula used to set the boundary head
    // of this boundary.
    property BoundaryHead: string read GetBoundaryHead write SetBoundaryHead;
    // @name is the formula used to set the conductance
    // or the conductance multiplier of this boundary.
    property Conductance: string read GetConductance write SetConductance;
  end;

  TGhbTimeListLink = class(TTimeListsModelLink)
  private
    // @name is used to compute the Boundary Heads for a series of
    // General Head Boundaries over a series of time intervals.
    FBoundaryHeadData: TModflowTimeList;
    // @name is used to compute the Conductances for a series of
    // General Head Boundaries over a series of time intervals.
    FConductanceData: TModflowTimeList;
  protected
    procedure CreateTimeLists; override;
  public
    Destructor Destroy; override;
  end;

  // @name represents MODFLOW General Head boundaries
  // for a series of time intervals.
  TGhbCollection = class(TCustomMF_ListBoundColl)
  private
    // @name is used to compute the Boundary Heads for a series of
    // General Head Boundaries over a series of time intervals.
//    FBoundaryHeadData: TModflowTimeList;
    // @name is used to compute the Conductances for a series of
    // General Head Boundaries over a series of time intervals.
//    FConductanceData: TModflowTimeList;
    procedure InvalidateHeadData(Sender: TObject);
    procedure InvalidateConductanceData(Sender: TObject);
  protected
    function GetTimeListLinkClass: TTimeListsModelLinkClass; override;
    procedure AssignListCellLocation(BoundaryStorage: TCustomBoundaryStorage;
      ACellList: TObject); override;
    { TODO -cRefactor : Consider replacing Model with an interface. }
    //
    procedure AssignCellList(Expression: TExpression; ACellList: TObject;
      BoundaryStorage: TCustomBoundaryStorage; BoundaryFunctionIndex: integer;
      Variables, DataSets: TList; AModel: TBaseModel; AScreenObject: TObject;
      PestName: string; PestSeriesName: string;
      PestSeriesMethod: TPestParamMethod); override;
    function AdjustedFormula(FormulaIndex, ItemIndex: integer): string;
      override;
    { TODO -cRefactor : Consider replacing Model with an interface. }
    //
    procedure AddSpecificBoundary(AModel: TBaseModel); override;
    procedure TestIfObservationsPresent(var EndOfLastStressPeriod: Double;
      var StartOfFirstStressPeriod: Double;
      var ObservationsPresent: Boolean); override;

    // See @link(TCustomNonSpatialBoundColl.ItemClass
    // TCustomNonSpatialBoundColl.ItemClass)
    class function ItemClass: TBoundaryItemClass; override;
    { TODO -cRefactor : Consider replacing Model with an interface. }
    // @name calls inherited @name and then sets the length of
    // the @link(TGhbStorage.GhbArray) at ItemIndex in
    // @link(TCustomMF_BoundColl.Boundaries) to BoundaryCount.
    // @SeeAlso(TCustomMF_BoundColl.SetBoundaryStartAndEndTime
    // TCustomMF_BoundColl.SetBoundaryStartAndEndTime)
    procedure SetBoundaryStartAndEndTime(BoundaryCount: Integer;
      Item: TCustomModflowBoundaryItem; ItemIndex: Integer; AModel: TBaseModel); override;
    procedure InvalidateModel; override;
  end;

  // Each @name stores a @link(TGhbCollection).
  // @classname is stored by @link(TModflowParameters).
  TGhbParamItem = class(TModflowParamItem)
  protected
    class function BoundaryClass: TMF_BoundCollClass; override;
  end;

  TGhb_Cell = class(TValueCell)
  private
    FValues: TGhbRecord;
    FStressPeriod: integer;
    function GetBoundaryHead: double;
    function GetConductance: double;
    function GetBoundaryHeadAnnotation: string;
    function GetConductanceAnnotation: string;
    function GetTimeSeriesName: string;
    function GetMvrUsed: Boolean;
    function GetMvrIndex: Integer;
    function GetConductanceParameterName: string;
    function GetConductanceParameterValue: double;
    function GetBoundaryHeadPest: string;
    function GetBoundaryHeadPestSeries: string;
    function GetBoundaryHeadPestSeriesMethod: TPestParamMethod;
    function GetConductancePest: string;
    function GetConductancePestSeries: string;
    function GetConductancePestSeriesMethod: TPestParamMethod;
  protected
    function GetColumn: integer; override;
    function GetLayer: integer; override;
    function GetRow: integer; override;
    procedure SetColumn(const Value: integer); override;
    procedure SetLayer(const Value: integer); override;
    procedure SetRow(const Value: integer); override;
    { TODO -cRefactor : Consider replacing Model with an interface. }
    //
    function GetIntegerValue(Index: integer; AModel: TBaseModel): integer; override;
    { TODO -cRefactor : Consider replacing Model with an interface. }
    //
    function GetRealValue(Index: integer; AModel: TBaseModel): double; override;
    { TODO -cRefactor : Consider replacing Model with an interface. }
    //
    function GetRealAnnotation(Index: integer; AModel: TBaseModel): string; override;
    { TODO -cRefactor : Consider replacing Model with an interface. }
    //
    function GetIntegerAnnotation(Index: integer; AModel: TBaseModel): string; override;
    procedure Cache(Comp: TCompressionStream; Strings: TStringList); override;
    procedure Restore(Decomp: TDecompressionStream; Annotations: TStringList); override;
    function GetSection: integer; override;
    procedure RecordStrings(Strings: TStringList); override;
  public
    property Conductance: double read GetConductance;
    property BoundaryHead: double read GetBoundaryHead;
    property TimeSeriesName: string read GetTimeSeriesName;
    property ConductanceAnnotation: string read GetConductanceAnnotation;
    property BoundaryHeadAnnotation: string read GetBoundaryHeadAnnotation;
    property MvrUsed: Boolean read GetMvrUsed;
    property MvrIndex: Integer read GetMvrIndex;
    function IsIdentical(AnotherCell: TValueCell): boolean; override;
    property ConductanceParameterName: string read GetConductanceParameterName;
    property ConductanceParameterValue: double read GetConductanceParameterValue;
    // PEST parameters
    property BoundaryHeadPest: string read GetBoundaryHeadPest;
    property ConductancePest: string read GetConductancePest;
    property BoundaryHeadPestSeries: string read GetBoundaryHeadPestSeries;
    property ConductancePestSeries: string read GetConductancePestSeries;
    property BoundaryHeadPestSeriesMethod: TPestParamMethod
      read GetBoundaryHeadPestSeriesMethod;
    property ConductancePestSeriesMethod: TPestParamMethod
      read GetConductancePestSeriesMethod;
  end;

  // @name represents the MODFLOW General-Head boundaries associated with
  // a single @link(TScreenObject).
  //
  // FormulaInterpretation determines whether the @Link(TGhbItem.Conductance
  // TGhbItem.Conductance) formulas represent
  // @unorderedlist(
  //   @item(fiSpecific - Conductance / the length or area of
  //     intersection between the @link(TScreenObject) and grid cell.)
  //   @item(fiTotal - Conductance.)
  // )
  // @seealso(TGhbCollection)
  TGhbBoundary = class(TSpecificModflowBoundary)
  private
    FPestConductanceMethod: TPestParamMethod;
    FPestHeadMethod: TPestParamMethod;
    FPestHeadFormula: TFormulaObject;
    FPestConductanceFormula: TFormulaObject;
    FUsedObserver: TObserver;
    FPestConductanceObserver: TObserver;
    FPestHeadObserver: TObserver;
//    FInterp: TMf6InterpolationMethods;
    procedure TestIfObservationsPresent(var EndOfLastStressPeriod: Double;
      var StartOfFirstStressPeriod: Double;
      var ObservationsPresent: Boolean);
    function GetPestConductanceFormula: string;
    function GetPestConductanceObserver: TObserver;
    function GetPestHeadFormula: string;
    function GetPestHeadObserver: TObserver;
    procedure SetPestConductanceFormula(const Value: string);
    procedure SetPestConductanceMethod(const Value: TPestParamMethod);
    procedure SetPestHeadFormula(const Value: string);
    procedure SetPestHeadMethod(const Value: TPestParamMethod);
    procedure InvalidateConductanceData(Sender: TObject);
    procedure InvalidateHeadData(Sender: TObject);
//    procedure SetInterp(const Value: TMf6InterpolationMethods);
  protected
    { TODO -cRefactor : Consider replacing Model with an interface. }
    // @name fills ValueTimeList with a series of TObjectLists - one for
    // each stress period.  Each such TObjectList is filled with
    // @link(TGhb_Cell)s for that stress period.
    procedure AssignCells(BoundaryStorage: TCustomBoundaryStorage;
      ValueTimeList: TList; AModel: TBaseModel); override;
    // See @link(TModflowBoundary.BoundaryCollectionClass
    // TModflowBoundary.BoundaryCollectionClass).
    class function BoundaryCollectionClass: TMF_BoundCollClass; override;
    // See @link(TModflowParamBoundary.ModflowParamItemClass
    // TModflowParamBoundary.ModflowParamItemClass).
    class function ModflowParamItemClass: TModflowParamItemClass; override;
    function ParameterType: TParameterType; override;

    procedure HandleChangedValue(Observer: TObserver); //override;
    function GetUsedObserver: TObserver; //override;
    procedure GetPropertyObserver(Sender: TObject; List: TList); override;
    procedure CreateFormulaObjects; //override;
    function BoundaryObserverPrefix: string; override;
    procedure CreateObservers; //override;
    property PestHeadObserver: TObserver read GetPestHeadObserver;
    property PestConductanceObserver: TObserver read GetPestConductanceObserver;
    function GetPestBoundaryFormula(FormulaIndex: integer): string; override;
    procedure SetPestBoundaryFormula(FormulaIndex: integer;
      const Value: string); override;
    function GetPestBoundaryMethod(FormulaIndex: integer): TPestParamMethod; override;
    procedure SetPestBoundaryMethod(FormulaIndex: integer;
      const Value: TPestParamMethod); override;
  public
    Constructor Create(Model: TBaseModel; ScreenObject: TObject);
    destructor Destroy; override;
    procedure Assign(Source: TPersistent);override;
    { TODO -cRefactor : Consider replacing Model with an interface. }
    // @name fills ValueTimeList via a call to AssignCells for each
    // link  @link(TGhbStorage) in
    // @link(TCustomMF_BoundColl.Boundaries Values.Boundaries);
    // Those represent non-parameter boundary conditions.
    // @name fills ParamList with the names of the
    // MODFLOW GHB parameters that are in use.
    // The Objects property of ParamList has TObjectLists
    // Each such TObjectList is filled via a call to AssignCells
    // with each @link(TGhbStorage) in @link(TCustomMF_BoundColl.Boundaries
    // Param.Param.Boundaries)
    // Those represent parameter boundary conditions.
    procedure GetCellValues(ValueTimeList: TList; ParamList: TStringList;
      AModel: TBaseModel); override;
    procedure InvalidateDisplay; override;
    class function DefaultBoundaryMethod(
      FormulaIndex: integer): TPestParamMethod; override;
  published
    property Interp;
    property PestHeadFormula: string read GetPestHeadFormula
      write SetPestHeadFormula
      {$IFNDEF PEST}
      Stored False
      {$ENDIF}
      ;
    property PestConductanceFormula: string read GetPestConductanceFormula
      write SetPestConductanceFormula
      {$IFNDEF PEST}
      Stored False
      {$ENDIF}
      ;
    property PestHeadMethod: TPestParamMethod read FPestHeadMethod
      write SetPestHeadMethod
      {$IFNDEF PEST}
      Stored False
      {$ENDIF}
      ;
    property PestConductanceMethod: TPestParamMethod
      read FPestConductanceMethod write SetPestConductanceMethod
      {$IFNDEF PEST}
      Stored False
      {$ENDIF}
      ;
  end;

implementation

uses PhastModelUnit, ScreenObjectUnit, ModflowTimeUnit, TempFiles, 
  frmGoPhastUnit, GIS_Functions, ModflowTimeSeriesUnit, ModflowMvrUnit;

resourcestring
  StrConductance = 'Conductance';
  StrConductanceMultipl = ' conductance multiplier';

const
  HeadPosition = 0;
  ConductancePosition = 1;

{ TGhbItem }

procedure TGhbItem.Assign(Source: TPersistent);
var
  Ghb: TGhbItem;
begin
  // if Assign is updated, update IsSame too.
  if Source is TGhbItem then
  begin
    Ghb := TGhbItem(Source);
    BoundaryHead := Ghb.BoundaryHead;
    Conductance := Ghb.Conductance;
  end;
  inherited;
end;

procedure TGhbItem.AssignObserverEvents(Collection: TCollection);
var
  ParentCollection: TGhbCollection;
  HeadObserver: TObserver;
  ConductanceObserver: TObserver;
begin
  ParentCollection := Collection as TGhbCollection;
  HeadObserver := FObserverList[HeadPosition];
  HeadObserver.OnUpToDateSet := ParentCollection.InvalidateHeadData;
  ConductanceObserver := FObserverList[ConductancePosition];
  ConductanceObserver.OnUpToDateSet := ParentCollection.InvalidateConductanceData;
end;

function TGhbItem.BoundaryFormulaCount: integer;
begin
  result := 2;
end;

procedure TGhbItem.CreateFormulaObjects;
begin
  FBoundaryHead := CreateFormulaObject(dso3D);
  FConductance := CreateFormulaObject(dso3D);
end;

destructor TGhbItem.Destroy;
begin
  BoundaryHead := '0';
  Conductance := '0';
  inherited;
end;

function TGhbItem.GetBoundaryFormula(Index: integer): string;
begin
  case Index of
    HeadPosition: result := BoundaryHead;
    ConductancePosition: result := Conductance;
    else Assert(False);
  end;
end;

function TGhbItem.GetBoundaryHead: string;
begin
  Result := FBoundaryHead.Formula;
  ResetItemObserver(HeadPosition);
end;

function TGhbItem.GetConductance: string;
begin
  Result := FConductance.Formula;
  ResetItemObserver(ConductancePosition);
end;

function TGhbItem.GetConductanceIndex: Integer;
begin
  Result := ConductancePosition;
end;

procedure TGhbItem.GetPropertyObserver(Sender: TObject; List: TList);
begin
  if Sender = FConductance then
  begin
    List.Add(FObserverList[ConductancePosition]);
  end;
  if Sender = FBoundaryHead then
  begin
    List.Add(FObserverList[HeadPosition]);
  end;
end;

procedure TGhbItem.InvalidateModel;
var
  PhastModel: TPhastModel;
begin
  inherited;
  PhastModel := Model as TPhastModel;
  if (PhastModel <> nil)
    and not (csDestroying in PhastModel.ComponentState)
    and not PhastModel.Clearing then
  begin
    PhastModel.InvalidateMfGhbConductance(self);
    PhastModel.InvalidateMfGhbBoundaryHead(self);
  end;
end;

function TGhbItem.IsSame(AnotherItem: TOrderedItem): boolean;
var
  Item: TGhbItem;
begin
  result := (AnotherItem is TGhbItem) and inherited IsSame(AnotherItem);
  if result then
  begin
    Item := TGhbItem(AnotherItem);
    result := (Item.BoundaryHead = BoundaryHead)
      and (Item.Conductance = Conductance);
  end;
end;

procedure TGhbItem.RemoveFormulaObjects;
begin
  frmGoPhast.PhastModel.FormulaManager.Remove(FConductance,
    GlobalRemoveModflowBoundaryItemSubscription, GlobalRestoreModflowBoundaryItemSubscription, self);
  frmGoPhast.PhastModel.FormulaManager.Remove(FBoundaryHead,
    GlobalRemoveModflowBoundaryItemSubscription, GlobalRestoreModflowBoundaryItemSubscription, self);
end;

procedure TGhbItem.SetBoundaryFormula(Index: integer; const Value: string);
begin
  inherited;
  case Index of
    HeadPosition: BoundaryHead := Value;
    ConductancePosition: Conductance := Value;
    else Assert(False);
  end;
end;

procedure TGhbItem.SetBoundaryHead(const Value: string);
begin
  UpdateFormulaBlocks(Value, HeadPosition, FBoundaryHead);
end;

procedure TGhbItem.SetConductance(const Value: string);
begin
  UpdateFormulaBlocks(Value, ConductancePosition, FConductance);
end;

{ TGhbCollection }

function TGhbCollection.GetTimeListLinkClass: TTimeListsModelLinkClass;
begin
  result := TGhbTimeListLink;
end;

procedure TGhbCollection.TestIfObservationsPresent(
  var EndOfLastStressPeriod: Double; var StartOfFirstStressPeriod: Double;
  var ObservationsPresent: Boolean);
var
  Boundary: TGhbBoundary;
begin
  // If observations exist, the list of cells must
  // be identical in every stress period.
  // To do that, introduce dummy values in BoundaryValues
  // for times that are not defined explicitly.
  // Set their conductances to zero so they have no effect
  // on the model.
  Boundary := BoundaryGroup as TGhbBoundary;
  Boundary.TestIfObservationsPresent(EndOfLastStressPeriod,
    StartOfFirstStressPeriod, ObservationsPresent);
end;

procedure TGhbCollection.AddSpecificBoundary(AModel: TBaseModel);
begin
  AddBoundary(TGhbStorage.Create(AModel));
end;

function TGhbCollection.AdjustedFormula(FormulaIndex,
  ItemIndex: integer): string;
var
  Boundary: TGhbBoundary;
  ScreenObject: TScreenObject;
  Item: TGhbItem;
begin
  Item := Items[ItemIndex] as TGhbItem;
  if FormulaIndex = ConductancePosition then
  begin
    Boundary := BoundaryGroup as TGhbBoundary;
    ScreenObject := Boundary.ScreenObject as TScreenObject;
    case Boundary.FormulaInterpretation of
      fiSpecific:
        begin
          if ScreenObject.ScreenObjectLength = 0 then
          begin
            result := Item.Conductance;
          end
          else if ScreenObject.Closed then
          begin
            result := '(' + Item.Conductance
              + ') * ' + StrObjectIntersectArea;
          end
          else
          begin
            result := '(' + Item.Conductance
              + ') * ' + StrObjectSectionIntersectLength;
          end;
        end;
      fiDirect:
        begin
          result := Item.Conductance;
        end;
      fiTotal:
        begin
          if ScreenObject.ScreenObjectLength = 0 then
          begin
            result := Item.Conductance;
          end
          else if ScreenObject.Closed then
          begin
            result := '((' + Item.Conductance
              + ') * ' + StrObjectIntersectArea + ') / ' + StrObjectArea;
          end
          else
          begin
            result := '((' + Item.Conductance
              + ') * ' + StrObjectSectionIntersectLength+ ') / ' + StrObjectLength;
          end;
        end;
      else Assert(False);
    end;
  end
  else
  begin
    result := Item.BoundaryFormula[FormulaIndex];
  end;
end;

procedure TGhbCollection.AssignCellList(Expression: TExpression;
  ACellList: TObject; BoundaryStorage: TCustomBoundaryStorage;
  BoundaryFunctionIndex: integer; Variables, DataSets: TList;
  AModel: TBaseModel; AScreenObject: TObject; PestName: string;
  PestSeriesName: string; PestSeriesMethod: TPestParamMethod);
var
  GhbStorage: TGhbStorage;
  CellList: TCellAssignmentList;
  Index: Integer;
  ACell: TCellAssignment;
begin
  Assert(BoundaryFunctionIndex in [HeadPosition,ConductancePosition]);
  Assert(Expression <> nil);

  GhbStorage := BoundaryStorage as TGhbStorage;
  CellList := ACellList as TCellAssignmentList;
  for Index := 0 to CellList.Count - 1 do
  begin
    ACell := CellList[Index];
    UpdateCurrentScreenObject(AScreenObject as TScreenObject);
    UpdateRequiredListData(DataSets, Variables, ACell, AModel);

    Expression.Evaluate;
    with GhbStorage.GhbArray[Index] do
    begin
      case BoundaryFunctionIndex of
        HeadPosition:
          begin
            BoundaryHead := Expression.DoubleResult;
            BoundaryHeadAnnotation := ACell.Annotation;
            BoundaryHeadPest := PestName;
            BoundaryHeadPestSeriesName := PestSeriesName;
            BoundaryHeadPestSeriesMethod := PestSeriesMethod;
          end;
        ConductancePosition:
          begin
            Conductance := Expression.DoubleResult;
            ConductanceAnnotation := ACell.Annotation;
            ConductancePest := PestName;
            ConductancePestSeriesName := PestSeriesName;
            ConductancePestSeriesMethod := PestSeriesMethod;
          end;
        else
          Assert(False);
      end;
    end;
  end;
end;

procedure TGhbCollection.AssignListCellLocation(
  BoundaryStorage: TCustomBoundaryStorage; ACellList: TObject);
var
  GhbStorage: TGhbStorage;
  CellList: TCellAssignmentList;
  Index: Integer;
  ACell: TCellAssignment;
begin
  GhbStorage := BoundaryStorage as TGhbStorage;
  CellList := ACellList as TCellAssignmentList;
  for Index := 0 to CellList.Count - 1 do
  begin
    ACell := CellList[Index];
    if ACell.LgrEdge then
    begin
      Continue;
    end;
    with GhbStorage.GhbArray[Index] do
    begin
      Cell.Layer := ACell.Layer;
      Cell.Row := ACell.Row;
      Cell.Column := ACell.Column;
      Cell.Section := ACell.Section;
    end;
  end;
end;

procedure TGhbCollection.SetBoundaryStartAndEndTime(BoundaryCount: Integer;
  Item: TCustomModflowBoundaryItem; ItemIndex: Integer; AModel: TBaseModel);
begin
  SetLength((Boundaries[ItemIndex, AModel] as TGhbStorage).FGhbArray, BoundaryCount);
  inherited;
end;

procedure TGhbCollection.InvalidateConductanceData(Sender: TObject);
var
  PhastModel: TPhastModel;
  Link: TGhbTimeListLink;
  ChildIndex: Integer;
  ChildModel: TChildModel;
begin
  if not (Sender as TObserver).UpToDate then
  begin
    PhastModel := frmGoPhast.PhastModel;
    if PhastModel.Clearing then
    begin
      Exit;
    end;
    Link := TimeListLink.GetLink(PhastModel) as TGhbTimeListLink;
    Link.FConductanceData.Invalidate;
    for ChildIndex := 0 to PhastModel.ChildModels.Count - 1 do
    begin
      ChildModel := PhastModel.ChildModels[ChildIndex].ChildModel;
      Link := TimeListLink.GetLink(ChildModel) as TGhbTimeListLink;
      Link.FConductanceData.Invalidate;
    end;
  end;
end;

procedure TGhbCollection.InvalidateHeadData(Sender: TObject);
var
  PhastModel: TPhastModel;
  Link: TGhbTimeListLink;
  ChildIndex: Integer;
  ChildModel: TChildModel;
begin
  if not (Sender as TObserver).UpToDate then
  begin
    PhastModel := frmGoPhast.PhastModel;
    if PhastModel.Clearing then
    begin
      Exit;
    end;
    Link := TimeListLink.GetLink(PhastModel) as TGhbTimeListLink;
    Link.FBoundaryHeadData.Invalidate;
    for ChildIndex := 0 to PhastModel.ChildModels.Count - 1 do
    begin
      ChildModel := PhastModel.ChildModels[ChildIndex].ChildModel;
      Link := TimeListLink.GetLink(ChildModel) as TGhbTimeListLink;
      Link.FBoundaryHeadData.Invalidate;
    end;
  end;
end;

procedure TGhbCollection.InvalidateModel;
var
  PhastModel: TPhastModel;
begin
  inherited;
  PhastModel := Model as TPhastModel;
  if (PhastModel <> nil)
    and not (csDestroying in PhastModel.ComponentState)
    and not PhastModel.Clearing then
  begin
    PhastModel.InvalidateMfGhbConductance(self);
    PhastModel.InvalidateMfGhbBoundaryHead(self);
  end;
end;

class function TGhbCollection.ItemClass: TBoundaryItemClass;
begin
  result := TGhbItem;
end;

{ TGhbParamItem }

class function TGhbParamItem.BoundaryClass: TMF_BoundCollClass;
begin
  result := TGhbCollection;
end;

{ TGhb_Cell }

procedure TGhb_Cell.Cache(Comp: TCompressionStream; Strings: TStringList);
begin
  inherited;
  FValues.Cache(Comp, Strings);
  WriteCompInt(Comp, FStressPeriod);
end;

function TGhb_Cell.GetBoundaryHead: double;
begin
  result := FValues.BoundaryHead;
end;

function TGhb_Cell.GetBoundaryHeadAnnotation: string;
begin
  result := FValues.BoundaryHeadAnnotation;
end;

function TGhb_Cell.GetBoundaryHeadPest: string;
begin
  result := FValues.BoundaryHeadPest;
end;

function TGhb_Cell.GetBoundaryHeadPestSeries: string;
begin
  result := FValues.BoundaryHeadPestSeriesName;
end;

function TGhb_Cell.GetBoundaryHeadPestSeriesMethod: TPestParamMethod;
begin
  result := FValues.BoundaryHeadPestSeriesMethod;
end;

function TGhb_Cell.GetColumn: integer;
begin
  result := FValues.Cell.Column;
end;

function TGhb_Cell.GetConductance: double;
begin
  result := FValues.Conductance;
end;

function TGhb_Cell.GetConductanceAnnotation: string;
begin
  result := FValues.ConductanceAnnotation;
end;

function TGhb_Cell.GetConductanceParameterName: string;
begin
  result := FValues.ConductanceParameterName;
end;

function TGhb_Cell.GetConductanceParameterValue: double;
begin
  result := FValues.ConductanceParameterValue;
end;

function TGhb_Cell.GetConductancePest: string;
begin
  result := FValues.ConductancePest;
end;

function TGhb_Cell.GetConductancePestSeries: string;
begin
  result := FValues.ConductancePestSeriesName;
end;

function TGhb_Cell.GetConductancePestSeriesMethod: TPestParamMethod;
begin
  result := FValues.ConductancePestSeriesMethod;
end;

function TGhb_Cell.GetIntegerAnnotation(Index: integer; AModel: TBaseModel): string;
begin
  result := '';
  Assert(False);
end;

function TGhb_Cell.GetIntegerValue(Index: integer; AModel: TBaseModel): integer;
begin
  result := 0;
  Assert(False);
end;

function TGhb_Cell.GetLayer: integer;
begin
  result := FValues.Cell.Layer;
end;

function TGhb_Cell.GetMvrIndex: Integer;
begin
  result := FValues.MvrIndex;
end;

function TGhb_Cell.GetMvrUsed: Boolean;
begin
  result := FValues.MvrUsed;
end;

function TGhb_Cell.GetRealAnnotation(Index: integer; AModel: TBaseModel): string;
begin
  case Index of
    HeadPosition:
      begin
        result := BoundaryHeadAnnotation;
      end;
    ConductancePosition:
      begin
        result := ConductanceAnnotation;
      end;
    else Assert(False);
  end;
end;

function TGhb_Cell.GetRealValue(Index: integer; AModel: TBaseModel): double;
begin
  result := 0;
  case Index of
    HeadPosition:
      begin
        result := BoundaryHead;
      end;
    ConductancePosition:
      begin
        result := Conductance;
      end;
    else Assert(False);
  end;
end;

function TGhb_Cell.GetRow: integer;
begin
  result := FValues.Cell.Row;
end;

function TGhb_Cell.GetSection: integer;
begin
  result := FValues.Cell.Section;
end;

function TGhb_Cell.GetTimeSeriesName: string;
begin
  result := FValues.TimeSeriesName;
end;

function TGhb_Cell.IsIdentical(AnotherCell: TValueCell): boolean;
var
  GHB_Cell: TGhb_Cell;
begin
  result := AnotherCell is TGhb_Cell;
  if result then
  begin
    GHB_Cell := TGhb_Cell(AnotherCell);
    result :=
      (Conductance = GHB_Cell.Conductance)
      and (BoundaryHead = GHB_Cell.BoundaryHead)
      and (IFace = GHB_Cell.IFace)
      and (FValues.Cell = GHB_Cell.FValues.Cell);
  end;
end;

procedure TGhb_Cell.RecordStrings(Strings: TStringList);
begin
  inherited;
  FValues.RecordStrings(Strings);
end;

procedure TGhb_Cell.Restore(Decomp: TDecompressionStream; Annotations: TStringList);
begin
  inherited;
  FValues.Restore(Decomp, Annotations);
  FStressPeriod := ReadCompInt(Decomp);
end;

procedure TGhb_Cell.SetColumn(const Value: integer);
begin
  FValues.Cell.Column := Value;
end;

procedure TGhb_Cell.SetLayer(const Value: integer);
begin
  FValues.Cell.Layer := Value;
end;

procedure TGhb_Cell.SetRow(const Value: integer);
begin
  FValues.Cell.Row := Value;
end;

{ TGhbBoundary }

procedure TGhbBoundary.Assign(Source: TPersistent);
var
  SourceGhb: TGhbBoundary;
begin
//  if Source is TGhbBoundary then
//  begin
//    SourceGhb := TGhbBoundary(Source);
//    Interp := SourceGhb.Interp;
//  end;
  if Source is TGhbBoundary then
  begin
    SourceGhb := TGhbBoundary(Source);
    PestHeadFormula := SourceGhb.PestHeadFormula;