unit ModflowStrUnit;

interface

uses Windows, ZLib, SysUtils, Classes, Contnrs, ModflowBoundaryUnit,
  OrderedCollectionUnit, DataSetUnit, ModflowCellUnit, FormulaManagerUnit,
  SubscriptionUnit, SparseDataSets, RbwParser, GoPhastTypes;

type
  TStrRecord = record
    Cell: TCellLocation;
    Conductance: double;
    Stage: double;
    BedTop: double;
    BedBottom: double;
    Flow: double;
    Width: double;
    Slope: Double;
    Roughness: double;
    StartingTime: double;
    EndingTime: double;
    ConductanceAnnotation: string;
    StageAnnotation: string;
    BedTopAnnotation: string;
    BedBottomAnnotation: string;
    FlowAnnotation: string;
    WidthAnnotation: string;
    SlopeAnnotation: string;
    RoughnessAnnotation: string;
    SegmentNumber: Integer;
    ReachNumber: Integer;
    ConductancePest: string;
    StagePest: string;
    BedTopPest: string;
    BedBottomPest: string;
    FlowPest: string;
    WidthPest: string;
    SlopePest: string;
    RoughnessPest: string;
    procedure Cache(Comp: TCompressionStream; Strings: TStringList);
    procedure Restore(Decomp: TDecompressionStream; Annotations: TStringList);
    procedure RecordStrings(Strings: TStringList);
  end;

  TStrArray = array of TStrRecord;

  TStrStorage = class(TCustomBoundaryStorage)
  private
    FStrArray: TStrArray;
    function GetStrArray: TStrArray;
  protected
    procedure Restore(DecompressionStream: TDecompressionStream; Annotations: TStringList); override;
    procedure Store(Compressor: TCompressionStream); override;
    procedure Clear; override;
  public
    property StrArray: TStrArray read GetStrArray;
  end;

  // @name represents a MODFLOW STR boundary for one time interval.
  // @name is stored by @link(TStrCollection).
  TStrItem = class(TCustomModflowBoundaryItem)
  private
    FOutflowSegment: integer;
    FDiversionSegment: integer;
    // See @link(Stage).
    procedure SetStage(const Value: string);
    // See @link(Conductance).
    procedure SetConductance(const Value: string);
    function GetConductance: string;
    function GetStage: string;
    function GetBedBottom: string;
    function GetBedTop: string;
    function GetFlow: string;
    procedure SetBedBottom(const Value: string);
    procedure SetBedTop(const Value: string);
    procedure SetFlow(const Value: string);
    function GetRoughness: string;
    function GetSlope: string;
    function GetWidth: string;
    procedure SetRoughness(const Value: string);
    procedure SetSlope(const Value: string);
    procedure SetWidth(const Value: string);
    procedure SetDiversionSegment(const Value: integer);
    procedure SetOutflowSegment(const Value: integer);
    function GetSegmentNumber: Integer;
  protected
    // See @link(Stage).
    FStage: TFormulaObject;
    // See @link(Conductance).
    FConductance: TFormulaObject;
    FBedTop: TFormulaObject;
    FBedBottom: TFormulaObject;
    FFlow: TFormulaObject;
    FWidth: TFormulaObject;
    Fslope: TFormulaObject;
    FRoughness: TFormulaObject;
    procedure AssignObserverEvents(Collection: TCollection); override;
    procedure CreateFormulaObjects; override;
    procedure GetPropertyObserver(Sender: TObject; List: TList); override;
    procedure RemoveFormulaObjects; override;
    // See @link(BoundaryFormula).
    function GetBoundaryFormula(Index: integer): string; override;
    // See @link(BoundaryFormula).
    procedure SetBoundaryFormula(Index: integer; const Value: string); override;
    // @name checks whether AnotherItem is the same as the current @classname.
    function IsSame(AnotherItem: TOrderedItem): boolean; override;
    procedure InvalidateModel; override;
    function BoundaryFormulaCount: integer; override;
  public
    // @name copies Source to this @classname.
    procedure Assign(Source: TPersistent); override;
    Destructor Destroy; override;
    property SegmentNumber: Integer read GetSegmentNumber;
  published
    // @name is the formula used to set the stage
    // of this boundary.
    property Stage: string read GetStage write SetStage;
    // @name is the formula used to set the conductance
    // or the conductance multiplier of this boundary.
    property Conductance: string read GetConductance write SetConductance;
    property BedTop: string read GetBedTop write SetBedTop;
    property BedBottom: string read GetBedBottom write SetBedBottom;
    property Flow: string read GetFlow write SetFlow;
    property Width: string read GetWidth write SetWidth;
    property Slope: string read GetSlope write SetSlope;
    property Roughness: string read GetRoughness write SetRoughness;
    property OutflowSegment: integer read FOutflowSegment
      write SetOutflowSegment;
    property DiversionSegment: integer read FDiversionSegment
      write SetDiversionSegment;
  end;

  TStrTimeListLink = class(TTimeListsModelLink)
  private
    // @name is used to perform notifications of the Stages for a series of
    // Stream Boundaries over a series of time intervals.
    FStageData: TModflowTimeList;
    // @name is used to perform notifications of the Conductances
    // for a series of
    // STR Boundaries over a series of time intervals.
    FConductanceData: TModflowTimeList;
    FBedTopData: TModflowTimeList;
    FBedBottomData: TModflowTimeList;
    FFlowData: TModflowTimeList;
    FWidthData: TModflowTimeList;
    FSlopeData: TModflowTimeList;
    FroughnessData: TModflowTimeList;
    FStrSegmentNumberData: TModflowTimeList;
    FStrOutflowSegmentNumberData: TModflowTimeList;
    FStrReachNumberData: TModflowTimeList;
    FStrDiversionSegmentNumberData: TModflowTimeList;
  protected
    procedure CreateTimeLists; override;
  public
    Destructor Destroy; override;
  end;

  // @name represents MODFLOW STR boundaries
  // for a series of time intervals.
  TStrCollection = class(TCustomMF_ListBoundColl)
  private
    procedure InvalidateStageData(Sender: TObject);
    procedure InvalidateConductanceData(Sender: TObject);
    procedure InvalidateBedTopData(Sender: TObject);
    procedure InvalidateBedBottomData(Sender: TObject);
    procedure InvalidateFlowData(Sender: TObject);
    procedure InvalidateWidthData(Sender: TObject);
    procedure InvalidateSlopeData(Sender: TObject);
    procedure InvalidateRoughnessData(Sender: TObject);
    procedure FixItems;
  protected
    function GetTimeListLinkClass: TTimeListsModelLinkClass; override;
    procedure AssignListCellLocation(BoundaryStorage: TCustomBoundaryStorage;
      ACellList: TObject); override;
    procedure AssignCellList(Expression: TExpression; ACellList: TObject;
      BoundaryStorage: TCustomBoundaryStorage; BoundaryFunctionIndex: integer;
      Variables, DataSets: TList; AModel: TBaseModel; AScreenObject: TObject;
      PestName: string); override;
    function AdjustedFormula(FormulaIndex, ItemIndex: integer): string;
      override;
    procedure AddSpecificBoundary(AModel: TBaseModel); override;
    procedure TestIfObservationsPresent(var EndOfLastStressPeriod: Double;
      var StartOfFirstStressPeriod: Double;
      var ObservationsPresent: Boolean); override;

    // See @link(TCustomNonSpatialBoundColl.ItemClass
    // TCustomNonSpatialBoundColl.ItemClass)
    class function ItemClass: TBoundaryItemClass; override;
    // @name calls inherited @name and then sets the length of
    // the @link(TStrStorage.StrArray) at ItemIndex in
    // @link(TCustomMF_BoundColl.Boundaries) to BoundaryCount.
    // @SeeAlso(TCustomMF_BoundColl.SetBoundaryStartAndEndTime
    // TCustomMF_BoundColl.SetBoundaryStartAndEndTime)
    procedure SetBoundaryStartAndEndTime(BoundaryCount: Integer;
      Item: TCustomModflowBoundaryItem; ItemIndex: Integer; AModel: TBaseModel);
      override;
  public
    constructor Create(Boundary: TModflowScreenObjectProperty;
      Model: TBaseModel; ScreenObject: TObject); override;
  end;

  // Each @name stores a @link(TStrCollection).
  // @classname is stored by @link(TModflowParameters).
  TStrParamItem = class(TModflowParamItem)
  protected
    class function BoundaryClass: TMF_BoundCollClass; override;
  end;

  TStr_Cell = class(TValueCell)
  private
    Values: TStrRecord;
    StressPeriod: integer;
    function GetStage: double;
    function GetConductance: double;
    function GetBedTop: double;
    function GetBedBottom: double;
    function GetFlow: double;
    function GetConductanceAnnotation: string;
    function GetStageAnnotation: string;
    function GetBedTopAnnotation: string;
    function GetBedBottomAnnotation: string;
    function GetFlowAnnotation: string;
    function GetRoughness: double;
    function GetRoughnessAnnotation: string;
    function GetSlope: double;
    function GetSlopeAnnotation: string;
    function GetWidth: double;
    function GetWidthAnnotation: string;
    procedure SetFlow(const Value: double);
    procedure SetFlowAnnotation(const Value: string);
  protected
    function GetColumn: integer; override;
    function GetLayer: integer; override;
    function GetRow: integer; override;
    procedure SetColumn(const Value: integer); override;
    procedure SetLayer(const Value: integer); override;
    procedure SetRow(const Value: integer); override;
    function GetIntegerValue(Index: integer; AModel: TBaseModel): integer; override;
    function GetRealValue(Index: integer; AModel: TBaseModel): double; override;
    function GetRealAnnotation(Index: integer; AModel: TBaseModel): string; override;
    function GetIntegerAnnotation(Index: integer; AModel: TBaseModel): string; override;
    procedure Cache(Comp: TCompressionStream; Strings: TStringList); override;
    procedure Restore(Decomp: TDecompressionStream; Annotations: TStringList); override;
    function GetSection: integer; override;
    procedure RecordStrings(Strings: TStringList); override;
  public
    property Conductance: double read GetConductance;
    property Stage: double read GetStage;
    property BedTop: double read GetBedTop;
    property BedBottom: double read GetBedBottom;
    property Flow: double read GetFlow write SetFlow;
    property Width: double read GetWidth;
    property Slope: double read GetSlope;
    property Roughness: double read GetRoughness;
    property SegmentNumber: Integer read Values.SegmentNumber
      write Values.SegmentNumber;
    property ReachNumber: Integer read Values.ReachNumber
      write Values.ReachNumber;
    property ConductanceAnnotation: string read GetConductanceAnnotation;
    property StageAnnotation: string read GetStageAnnotation;
    property BedTopAnnotation: string read GetBedTopAnnotation;
    property BedBottomAnnotation: string read GetBedBottomAnnotation;
    property FlowAnnotation: string read GetFlowAnnotation write SetFlowAnnotation;
    property WidthAnnotation: string read GetWidthAnnotation;
    property SlopeAnnotation: string read GetSlopeAnnotation;
    property RoughnessAnnotation: string read GetRoughnessAnnotation;
    function IsIdentical(AnotherCell: TValueCell): boolean; override;

  end;

  // @name represents the MODFLOW STR boundaries associated with
  // a single @link(TScreenObject).
  //
  // FormulaInterpretation determines whether the @Link(TStrItem.Conductance
  // TStrItem.Conductance) formulas represent
  // @unorderedlist(
  //   @item(fiSpecific - Conductance / the length or area of
  //     intersection between the @link(TScreenObject) and grid cell.)
  //   @item(fiTotal - Conductance.)
  // )
  // @seealso(TStrCollection)
  TStrBoundary = class(TSpecificModflowBoundary)
  private
    FSegmentNumber: Integer;
    procedure TestIfObservationsPresent(var EndOfLastStressPeriod: Double;
      var StartOfFirstStressPeriod: Double;
      var ObservationsPresent: Boolean);
    procedure SetSegmentNumber(const Value: Integer);
  protected
    // @name fills ValueTimeList with a series of TObjectLists - one for
    // each stress period.  Each such TObjectList is filled with
    // @link(TStr_Cell)s for that stress period.
    procedure AssignCells(BoundaryStorage: TCustomBoundaryStorage;
      ValueTimeList: TList; AModel: TBaseModel); override;
    // See @link(TModflowBoundary.BoundaryCollectionClass
    // TModflowBoundary.BoundaryCollectionClass).
    class function BoundaryCollectionClass: TMF_BoundCollClass; override;
    // See @link(TModflowParamBoundary.ModflowParamItemClass
    // TModflowParamBoundary.ModflowParamItemClass).
    class function ModflowParamItemClass: TModflowParamItemClass; override;
    function ParameterType: TParameterType; override;
  public
    // @name insures that there are no time gaps in @link(TStrCollection)
    // by filling in any time gaps with inactive TStrItems.
    procedure FixItems;
    // @name copies @link(SegmentNumber) from the Source
    // @classname to this @classname and then calls inherited Assign.
    procedure Assign(Source: TPersistent);override;
    // @name fills ValueTimeList via a call to AssignCells for each
    // link  @link(TStrStorage) in
    // @link(TCustomMF_BoundColl.Boundaries Values.Boundaries);
    // Those represent non-parameter boundary conditions.
    // @name fills ParamList with the names of the
    // MODFLOW STR parameters that are in use.
    // The Objects property of ParamList has TObjectLists
    // Each such TObjectList is filled via a call to AssignCells
    // with each @link(TStrStorage) in @link(TCustomMF_BoundColl.Boundaries
    // Param.Param.Boundaries)
    // Those represent parameter boundary conditions.
    procedure GetCellValues(ValueTimeList: TList; ParamList: TStringList;
      AModel: TBaseModel); override;
    procedure InvalidateDisplay; override;
  published
    property SegmentNumber: Integer read FSegmentNumber write SetSegmentNumber;
  end;

const
  StreamConductancePosition = 0;
  StreamBedTopPosition = 1;
  StreamBedBottomPosition = 2;
  StreamFlowPosition = 3;
  StreamStagePosition = 4;
  StreamWidthPosition = 5;
  StreamSlopePosition = 6;
  StreamRoughnessPosition = 7;

implementation

uses PhastModelUnit, ScreenObjectUnit, ModflowTimeUnit, TempFiles,
  frmGoPhastUnit, GIS_Functions, ModflowPackageSelectionUnit;

resourcestring
  StrHead = 'Head';
  StrStreambedTop = 'Streambed Top';
  StrStreambedBottom = 'Streambed Bottom';
  StrFlow = 'Flow';
  StrWidth = 'Width';
  StrSlope = 'Slope';
  StrRoughness = 'Roughness';
  StrSegmentNumber = 'Segment Number';
  StrOutflowSegmentNumber = 'Outflow Segment Number';
  StrDiversionSegmentNu = 'Diversion Segment Number';
  StrReachNumber = 'Reach Number';

{ TStrRecord }

procedure TStrRecord.Cache(Comp: TCompressionStream; Strings: TStringList);
begin
  WriteCompCell(Comp, Cell);
  WriteCompReal(Comp, Conductance);
  WriteCompReal(Comp, Stage);
  WriteCompReal(Comp, BedTop);
  WriteCompReal(Comp, BedBottom);
  WriteCompReal(Comp, Flow);
  WriteCompReal(Comp, Width);
  WriteCompReal(Comp, Slope);
  WriteCompReal(Comp, Roughness);
  WriteCompReal(Comp, StartingTime);
  WriteCompReal(Comp, EndingTime);
  WriteCompInt(Comp, SegmentNumber);
  WriteCompInt(Comp, ReachNumber);
  WriteCompInt(Comp, Strings.IndexOf(ConductanceAnnotation));
  WriteCompInt(Comp, Strings.IndexOf(StageAnnotation));
  WriteCompInt(Comp, Strings.IndexOf(BedTopAnnotation));
  WriteCompInt(Comp, Strings.IndexOf(BedBottomAnnotation));
  WriteCompInt(Comp, Strings.IndexOf(FlowAnnotation));
  WriteCompInt(Comp, Strings.IndexOf(WidthAnnotation));
  WriteCompInt(Comp, Strings.IndexOf(SlopeAnnotation));
  WriteCompInt(Comp, Strings.IndexOf(RoughnessAnnotation));

  WriteCompInt(Comp, Strings.IndexOf(ConductancePest));
  WriteCompInt(Comp, Strings.IndexOf(StagePest));
  WriteCompInt(Comp, Strings.IndexOf(BedTopPest));
  WriteCompInt(Comp, Strings.IndexOf(BedBottomPest));
  WriteCompInt(Comp, Strings.IndexOf(FlowPest));
  WriteCompInt(Comp, Strings.IndexOf(WidthPest));
  WriteCompInt(Comp, Strings.IndexOf(SlopePest));
  WriteCompInt(Comp, Strings.IndexOf(RoughnessPest));

end;

procedure TStrRecord.RecordStrings(Strings: TStringList);
begin
  Strings.Add(ConductanceAnnotation);
  Strings.Add(StageAnnotation);
  Strings.Add(BedTopAnnotation);
  Strings.Add(BedBottomAnnotation);
  Strings.Add(FlowAnnotation);
  Strings.Add(WidthAnnotation);
  Strings.Add(SlopeAnnotation);
  Strings.Add(RoughnessAnnotation);

  Strings.Add(ConductancePest);
  Strings.Add(StagePest);
  Strings.Add(BedTopPest);
  Strings.Add(BedBottomPest);
  Strings.Add(FlowPest);
  Strings.Add(WidthPest);
  Strings.Add(SlopePest);
  Strings.Add(RoughnessPest);

end;

procedure TStrRecord.Restore(Decomp: TDecompressionStream;
  Annotations: TStringList);
begin
  Cell := ReadCompCell(Decomp);
  Conductance := ReadCompReal(Decomp);
  Stage := ReadCompReal(Decomp);
  BedTop := ReadCompReal(Decomp);
  BedBottom := ReadCompReal(Decomp);
  Flow := ReadCompReal(Decomp);
  Width := ReadCompReal(Decomp);
  Slope := ReadCompReal(Decomp);
  Roughness := ReadCompReal(Decomp);
  StartingTime := ReadCompReal(Decomp);
  EndingTime := ReadCompReal(Decomp);
  SegmentNumber := ReadCompInt(Decomp);
  ReachNumber := ReadCompInt(Decomp);
  ConductanceAnnotation := Annotations[ReadCompInt(Decomp)];
  StageAnnotation := Annotations[ReadCompInt(Decomp)];
  BedTopAnnotation := Annotations[ReadCompInt(Decomp)];
  BedBottomAnnotation := Annotations[ReadCompInt(Decomp)];
  FlowAnnotation := Annotations[ReadCompInt(Decomp)];
  WidthAnnotation := Annotations[ReadCompInt(Decomp)];
  SlopeAnnotation := Annotations[ReadCompInt(Decomp)];
  RoughnessAnnotation := Annotations[ReadCompInt(Decomp)];

  ConductancePest := Annotations[ReadCompInt(Decomp)];
  StagePest := Annotations[ReadCompInt(Decomp)];
  BedTopPest := Annotations[ReadCompInt(Decomp)];
  BedBottomPest := Annotations[ReadCompInt(Decomp)];
  FlowPest := Annotations[ReadCompInt(Decomp)];
  WidthPest := Annotations[ReadCompInt(Decomp)];
  SlopePest := Annotations[ReadCompInt(Decomp)];
  RoughnessPest := Annotations[ReadCompInt(Decomp)];

end;

{ TStrStorage }

procedure TStrStorage.Clear;
begin
  SetLength(FStrArray, 0);
  FCleared := True;
end;

function TStrStorage.GetStrArray: TStrArray;
begin
  if FCached and FCleared then
  begin
    RestoreData;
  end;
  result := FStrArray;
end;

procedure TStrStorage.Restore(DecompressionStream: TDecompressionStream;
  Annotations: TStringList);
var
  Index: Integer;
  Count: Integer;
begin
  DecompressionStream.Read(Count, SizeOf(Count));
  SetLength(FStrArray, Count);
  for Index := 0 to Count - 1 do
  begin
    FStrArray[Index].Restore(DecompressionStream, Annotations);
  end;
end;

procedure TStrStorage.Store(Compressor: TCompressionStream);
var
  Index: Integer;
  Count: Integer;
  Strings: TStringList;
begin
  Strings := TStringList.Create;
  try
    Strings.Sorted := true;
    Strings.Duplicates := dupIgnore;
    Count := Length(FStrArray);
    for Index := 0 to Count - 1 do
    begin
      FStrArray[Index].RecordStrings(Strings);
    end;
    WriteCompInt(Compressor, Strings.Count);

    for Index := 0 to Strings.Count - 1 do
    begin
      WriteCompString(Compressor, Strings[Index]);
    end;

    Compressor.Write(Count, SizeOf(Count));
    for Index := 0 to Count - 1 do
    begin
      FStrArray[Index].Cache(Compressor, Strings);
    end;

  finally
    Strings.Free;
  end;
end;

{ TStrItem }

procedure TStrItem.Assign(Source: TPersistent);
var
  Str: TStrItem;
begin
  // if Assign is updated, update IsSame too.
  if Source is TStrItem then
  begin
    Str := TStrItem(Source);
    Stage := Str.Stage;
    Conductance := Str.Conductance;
    BedTop := Str.BedTop;
    BedBottom := Str.BedBottom;
    Flow := Str.Flow;
    Width := Str.Width;
    Slope := Str.Slope;
    Roughness := Str.Roughness;
    OutflowSegment := Str.OutflowSegment;
    DiversionSegment := Str.DiversionSegment;
  end;
  inherited;
end;

procedure TStrItem.AssignObserverEvents(Collection: TCollection);
var
  ParentCollection: TStrCollection;
  StageObserver: TObserver;
  ConductanceObserver: TObserver;
  BedTopObserver: TObserver;
  BedBottomObserver: TObserver;
  FlowObserver: TObserver;
  WidthObserver: TObserver;
  SlopeObserver: TObserver;
  RoughnessObserver: TObserver;
begin
  ParentCollection := Collection as TStrCollection;
  StageObserver := FObserverList[StreamStagePosition];
  StageObserver.OnUpToDateSet := ParentCollection.InvalidateStageData;
  ConductanceObserver := FObserverList[StreamConductancePosition];
  ConductanceObserver.OnUpToDateSet := ParentCollection.InvalidateConductanceData;
  BedTopObserver := FObserverList[StreamBedTopPosition];
  BedTopObserver.OnUpToDateSet := ParentCollection.InvalidateBedTopData;
  BedBottomObserver := FObserverList[StreamBedBottomPosition];
  BedBottomObserver.OnUpToDateSet := ParentCollection.InvalidateBedBottomData;
  FlowObserver := FObserverList[StreamFlowPosition];
  FlowObserver.OnUpToDateSet := ParentCollection.InvalidateFlowData;
  WidthObserver := FObserverList[StreamWidthPosition];
  WidthObserver.OnUpToDateSet := ParentCollection.InvalidateWidthData;
  SlopeObserver := FObserverList[StreamSlopePosition];
  SlopeObserver.OnUpToDateSet := ParentCollection.InvalidateSlopeData;
  RoughnessObserver := FObserverList[StreamRoughnessPosition];
  RoughnessObserver.OnUpToDateSet := ParentCollection.InvalidateRoughnessData;
end;

function TStrItem.BoundaryFormulaCount: integer;
//var
//  StrPackage: TStrPackageSelection;
begin
//  StrPackage := (CurrentModel as TCustomModel).ModflowPackages.StrPackage;
//  if StrPackage.CalculateStage then
//  begin
    result := 8;
//  end
//  else
//  begin
//    result := 5;
//  end;
end;

procedure TStrItem.CreateFormulaObjects;
begin
  FStage := CreateFormulaObject(dso3D);
  FConductance := CreateFormulaObject(dso3D);
  FBedTop := CreateFormulaObject(dso3D);
  FBedBottom := CreateFormulaObject(dso3D);
  FFlow := CreateFormulaObject(dso3D);
  FWidth := CreateFormulaObject(dso3D);
  FSlope := CreateFormulaObject(dso3D);
  FRoughness := CreateFormulaObject(dso3D);
end;

destructor TStrItem.Destroy;
begin
  Stage := '0';
  Conductance := '0';
  BedTop := '0';
  BedBottom := '0';
  Flow := '0';
  Width := '0';
  Slope := '0';
  Roughness := '0';
  inherited;
end;

function TStrItem.GetBedBottom: string;
begin
  Result := FBedBottom.Formula;
  ResetItemObserver(StreamBedBottomPosition);
end;

function TStrItem.GetBedTop: string;
begin
  Result := FBedTop.Formula;
  ResetItemObserver(StreamBedTopPosition);
end;

function TStrItem.GetBoundaryFormula(Index: integer): string;
begin
  case Index of
    StreamConductancePosition: result := Conductance;
    StreamBedTopPosition: result := BedTop;
    StreamBedBottomPosition: result := BedBottom;
    StreamFlowPosition: result := Flow;
    StreamStagePosition: result := Stage;
    StreamWidthPosition: result := Width;
    StreamSlopePosition: result := Slope;
    StreamRoughnessPosition: result := Roughness;
    else Assert(False);
  end;
end;

function TStrItem.GetConductance: string;
begin
  Result := FConductance.Formula;
  ResetItemObserver(StreamConductancePosition);
end;

function TStrItem.GetFlow: string;
begin
  Result := FFlow.Formula;
  ResetItemObserver(StreamFlowPosition);
end;

procedure TStrItem.GetPropertyObserver(Sender: TObject; List: TList);
begin
  if Sender = FConductance then
  begin
    List.Add(FObserverList[StreamConductancePosition]);
  end;
  if Sender = FStage then
  begin
    List.Add(FObserverList[StreamStagePosition]);
  end;
  if Sender = FBedTop then
  begin
    List.Add(FObserverList[StreamBedTopPosition]);
  end;
  if Sender = FBedBottom then
  begin
    List.Add(FObserverList[StreamBedBottomPosition]);
  end;
  if Sender = FFlow then
  begin
    List.Add(FObserverList[StreamFlowPosition]);
  end;
  if Sender = FWidth then
  begin
    List.Add(FObserverList[StreamWidthPosition]);
  end;
  if Sender = FSlope then
  begin
    List.Add(FObserverList[StreamSlopePosition]);
  end;
  if Sender = FRoughness then
  begin
    List.Add(FObserverList[StreamRoughnessPosition]);
  end;

end;

function TStrItem.GetRoughness: string;
begin
  Result := FRoughness.Formula;
  ResetItemObserver(StreamRoughnessPosition);
end;

function TStrItem.GetSegmentNumber: Integer;
var
  StrCollection: TStrCollection;
  StrBoundary: TStrBoundary;
begin
  StrCollection := Collection as TStrCollection;
  StrBoundary := StrCollection.BoundaryGroup as TStrBoundary;
  result := StrBoundary.SegmentNumber;
end;

function TStrItem.GetSlope: string;
begin
  Result := FSlope.Formula;
  ResetItemObserver(StreamSlopePosition);
end;

function TStrItem.GetStage: string;
begin
  Result := FStage.Formula;
  ResetItemObserver(StreamStagePosition);
end;

function TStrItem.GetWidth: string;
begin
  Result := FWidth.Formula;
  ResetItemObserver(StreamWidthPosition);
end;

procedure TStrItem.InvalidateModel;
var
  PhastModel: TPhastModel;
begin
  inherited;
  PhastModel := Model as TPhastModel;
  if (PhastModel <> nil)
    and not (csDestroying in PhastModel.ComponentState)
    and not PhastModel.Clearing then
  begin
    PhastModel.InvalidateMfStrConductance(self);
    PhastModel.InvalidateMfStrStage(self);
    PhastModel.InvalidateMfStrBedTop(self);
    PhastModel.InvalidateMfStrBedBottom(self);
    PhastModel.InvalidateMfStrFlow(self);
    PhastModel.InvalidateMfStrWidth(self);
    PhastModel.InvalidateMfStrSlope(self);
    PhastModel.InvalidateMfStrRoughness(self);
    PhastModel.InvalidateMfStrSegmentNumber(self);
    PhastModel.InvalidateMfStrOutflowSegmentNumber(self);
    PhastModel.InvalidateMfStrDiversionSegmentNumber(self);
    PhastModel.InvalidateMfStrReachNumber(self);
  end;
end;

function TStrItem.IsSame(AnotherItem: TOrderedItem): boolean;
var
  Item: TStrItem;
begin
  result := (AnotherItem is TStrItem) and inherited IsSame(AnotherItem);
  if result then
  begin
    Item := TStrItem(AnotherItem);
    result := (Item.Stage = Stage)
      and (Item.Conductance = Conductance)
      and (Item.BedTop = BedTop)
      and (Item.BedBottom = BedBottom)
      and (Item.Flow = Flow)
      and (Item.Width = Width)
      and (Item.Slope = Slope)
      and (Item.Roughness = Roughness)
      and (Item.OutflowSegment = OutflowSegment)
      and (Item.DiversionSegment = DiversionSegment);
  end;
end;

procedure TStrItem.RemoveFormulaObjects;
begin
  frmGoPhast.PhastModel.FormulaManager.Remove(FConductance,
    GlobalRemoveModflowBoundaryItemSubscription,
    GlobalRestoreModflowBoundaryItemSubscription, self);
  frmGoPhast.PhastModel.FormulaManager.Remove(FStage,
    GlobalRemoveModflowBoundaryItemSubscription,
    GlobalRestoreModflowBoundaryItemSubscription, self);
  frmGoPhast.PhastModel.FormulaManager.Remove(FBedTop,
    GlobalRemoveModflowBoundaryItemSubscription,
    GlobalRestoreModflowBoundaryItemSubscription, self);
  frmGoPhast.PhastModel.FormulaManager.Remove(FBedBottom,
    GlobalRemoveModflowBoundaryItemSubscription,
    GlobalRestoreModflowBoundaryItemSubscription, self);
  frmGoPhast.PhastModel.FormulaManager.Remove(FFlow,
    GlobalRemoveModflowBoundaryItemSubscription,
    GlobalRestoreModflowBoundaryItemSubscription, self);
  frmGoPhast.PhastModel.FormulaManager.Remove(FWidth,
    GlobalRemoveModflowBoundaryItemSubscription,
    GlobalRestoreModflowBoundaryItemSubscription, self);
  frmGoPhast.PhastModel.FormulaManager.Remove(FSlope,
    GlobalRemoveModflowBoundaryItemSubscription,
    GlobalRestoreModflowBoundaryItemSubscription, self);
  frmGoPhast.PhastModel.FormulaManager.Remove(FRoughness,
    GlobalRemoveModflowBoundaryItemSubscription,
    GlobalRestoreModflowBoundaryItemSubscription, self);

end;

procedure TStrItem.SetBedBottom(const Value: string);
begin
  UpdateFormulaBlocks(Value, StreamBedBottomPosition, FBedBottom);
end;

procedure TStrItem.SetBedTop(const Value: string);
begin
  UpdateFormulaBlocks(Value, StreamBedTopPosition, FBedTop);
end;

procedure TStrItem.SetBoundaryFormula(Index: integer; const Value: string);
begin
  case Index of
    StreamConductancePosition:
      Conductance := Value;
    StreamBedTopPosition:
      BedTop := Value;
    StreamBedBottomPosition:
      BedBottom := Value;
    StreamFlowPosition:
      Flow := Value;
    StreamStagePosition:
      Stage := Value;
    StreamWidthPosition:
      Width := Value;
    StreamSlopePosition:
      Slope := Value;
    StreamRoughnessPosition:
      Roughness := Value;
    else Assert(False);
  end;
end;

procedure TStrItem.SetConductance(const Value: string);
begin
  UpdateFormulaBlocks(Value, StreamConductancePosition, FConductance);
end;

procedure TStrItem.SetDiversionSegment(const Value: integer);
var
  Model: TBaseModel;
begin
  if FDiversionSegment <> Value then
  begin
    InvalidateModel;
    FDiversionSegment := Value;
    Model := (Collection as TStrCollection).Model;
    if Model <> nil then
    begin
      (Model as TCustomModel).ModflowPackages.StrPackage.
        MfStrSegmentNumber.Invalidate;
    end;
  end;
end;

procedure TStrItem.SetFlow(const Value: string);
begin
  UpdateFormulaBlocks(Value, StreamFlowPosition, FFlow);
end;

procedure TStrItem.SetOutflowSegment(const Value: integer);
var
  Model: TBaseModel;
begin
  if FOutflowSegment <> Value then
  begin
    InvalidateModel;
    FOutflowSegment := Value;
    Model := (Collection as TStrCollection).Model;
    if Model <> nil then
    begin
      (Model as TCustomModel).ModflowPackages.StrPackage.
        MfStrSegmentNumber.Invalidate;
    end;
  end;
end;

procedure TStrItem.SetRoughness(const Value: string);
begin
  UpdateFormulaBlocks(Value, StreamRoughnessPosition, FRoughness);
end;

procedure TStrItem.SetSlope(const Value: string);
begin
  UpdateFormulaBlocks(Value, StreamSlopePosition, FSlope);
end;

procedure TStrItem.SetStage(const Value: string);
begin
  UpdateFormulaBlocks(Value, StreamStagePosition, FStage);
end;

procedure TStrItem.SetWidth(const Value: string);
begin
  UpdateFormulaBlocks(Value, StreamWidthPosition, FWidth);
end;

{ TStrTimeListLink }

procedure TStrTimeListLink.CreateTimeLists;
var
  LocalModel: TCustomModel;
begin
  inherited;