unit ModflowSfrReachUnit;

interface

uses Windows, ZLib, SysUtils, Classes, OrderedCollectionUnit,
  ModflowCellUnit, ModflowBoundaryUnit, DataSetUnit, FormulaManagerUnit,
  SubscriptionUnit, GoPhastTypes;

type
  TSfrRecord = record
    Cell: TCellLocation;
    ReachLength: double;
    LgrReachLength: double;
    StreamSlope: double;
    StreambedElevation: double;
    StreamBedThickness: double;
    HydraulicConductivity: double;
    SaturatedWaterContent: double;
    InitialWaterContent: double;
    BrooksCoreyExponent: double;
    VerticalK: double;
    StartingTime: double;
    EndingTime: double;
    ReachLengthAnnotation: string;
    StreamSlopeAnnotation: string;
    HydraulicConductivityAnnotation: string;
    StreambedElevationAnnotation: string;
    StreamBedThicknessAnnotation: string;
    SaturatedWaterContentAnnotation: string;
    InitialWaterContentAnnotation: string;
    BrooksCoreyExponentAnnotation: string;
    VerticalKAnnotation: string;

    ReachLengthPestItem: string;
    StreamSlopePestItem: string;
    HydraulicConductivityPestItem: string;
    StreambedElevationPestItem: string;
    StreamBedThicknessPestItem: string;
    SaturatedWaterContentPestItem: string;
    InitialWaterContentPestItem: string;
    BrooksCoreyExponentPestItem: string;
    VerticalKPestItem: string;
    procedure Cache(Comp: TCompressionStream; Strings: TStringList);
    procedure Restore(Decomp: TDecompressionStream; Annotations: TStringList);
    procedure RecordStrings(Strings: TStringList);
    procedure AdjustReachLength(Factor: double);
  end;

  TSrfArray = array of TSfrRecord;

  TSfrStorage = class(TCustomBoundaryStorage)
  private
    FSfrArray: TSrfArray;
    function GetSfrArray: TSrfArray;
  protected
    procedure Restore(DecompressionStream: TDecompressionStream; Annotations: TStringList); override;
    procedure Store(Compressor: TCompressionStream); override;
    procedure Clear; override;
  public
    property SfrArray: TSrfArray read GetSfrArray;
  end;

  // @name represents a MODFLOW Streamflow Routing boundary for one time interval.
  // @name is stored by @link(TSfrCollection).
  TSfrItem = class(TCustomModflowBoundaryItem)
  private
    FStreamBedThickness: TFormulaObject;
    FStreambedElevation: TFormulaObject;
    FHydraulicConductivity: TFormulaObject;
    FStreamSlope: TFormulaObject;
    FBrooksCoreyExponent: TFormulaObject;
    FVerticalK: TFormulaObject;
    FInitialWaterContent: TFormulaObject;
    FSaturatedWaterContent: TFormulaObject;
    FReachLength: TFormulaObject;
    procedure SetHydraulicConductivity(const Value: string);
    procedure SetStreambedElevation(const Value: string);
    procedure SetStreamBedThickness(const Value: string);
    procedure SetStreamSlope(const Value: string);
    procedure SetBrooksCoreyExponent(const Value: string);
    procedure SetInitialWaterContent(const Value: string);
    procedure SetSaturatedWaterContent(const Value: string);
    procedure SetVerticalK(const Value: string);
    procedure SetReachLength(const Value: string);
    function ScreenObject: TObject;
    function GetBrooksCoreyExponent: string;
    function GetHydraulicConductivity: string;
    function GetInitialWaterContent: string;
    function GetReachLength: string;
    function GetSaturatedWaterContent: string;
    function GetStreambedElevation: string;
    function GetStreamBedThickness: string;
    function GetStreamSlope: string;
    function GetVerticalK: string;
  protected
    procedure AssignObserverEvents(Collection: TCollection); override;
    procedure CreateFormulaObjects; override;
    procedure GetPropertyObserver(Sender: TObject; List: TList); override;
    procedure RemoveFormulaObjects; override;
    // See @link(BoundaryFormula).
    function GetBoundaryFormula(Index: integer): string; override;
    // See @link(BoundaryFormula).
    procedure SetBoundaryFormula(Index: integer; const Value: string); override;
    // @name checks whether AnotherItem is the same as the current @classname.
    function IsSame(AnotherItem: TOrderedItem): boolean; override;
    procedure InvalidateModel; override;
    function BoundaryFormulaCount: integer; override;
  public
    constructor Create(Collection: TCollection); override;
    // @name copies Source to this @classname.
    procedure Assign(Source: TPersistent);override;
    Destructor Destroy; override;
  published
    property ReachLength: string read GetReachLength write SetReachLength;
    property HydraulicConductivity: string read GetHydraulicConductivity
      write SetHydraulicConductivity;
    property StreamBedThickness: string read GetStreamBedThickness
      write SetStreamBedThickness;
    property StreambedElevation: string read GetStreambedElevation
      write SetStreambedElevation;
    property StreamSlope: string read GetStreamSlope write SetStreamSlope;
    property SaturatedWaterContent: string read GetSaturatedWaterContent
      write SetSaturatedWaterContent;
    property InitialWaterContent: string read GetInitialWaterContent
      write SetInitialWaterContent;
    property BrooksCoreyExponent: string read GetBrooksCoreyExponent
      write SetBrooksCoreyExponent;
    property VerticalK: string read GetVerticalK write SetVerticalK;
  end;

  TSfrTimeListLink = class(TTimeListsModelLink)
  private
    // @name is used to compute the hydraulic conductivity for a series of
    // Streamflow Routing Boundaries over a series of time intervals.
    FHydraulicConductivityData: TModflowTimeList;
    // @name is used to compute the streambed thickness for a series of
    // Streamflow Routing Boundaries over a series of time intervals.
    FStreamBedThicknessData: TModflowTimeList;
    // @name is used to compute the streambed elevation for a series of
    // Streamflow Routing Boundaries over a series of time intervals.
    FStreamBedElevationData: TModflowTimeList;
    // @name is used to compute the stream slope for a series of
    // Streamflow Routing Boundaries over a series of time intervals.
    FStreamSlopeData: TModflowTimeList;
    FSaturatedWaterContent: TModflowTimeList;
    FInitialWaterContent: TModflowTimeList;
    FBrooksCoreyExponent: TModflowTimeList;
    FVerticalK: TModflowTimeList;
    FReachLength: TModflowTimeList;
    FLgrReachLength: TModflowTimeList;
  protected
    procedure CreateTimeLists; override;
  public
    Destructor Destroy; override;
  end;


  // @name represents MODFLOW Streamflow Routing boundaries
  // for a series of time intervals.
  TSfrCollection = class(TCustomMF_ArrayBoundColl)
  private
    procedure InvalidateReachLengthData(Sender: TObject);
    procedure InvalidateHydraulicConductivityData(Sender: TObject);
    procedure InvalidateBedThicknessData(Sender: TObject);
    procedure InvalidateStreambedElevationData(Sender: TObject);
    procedure InvalidateStreamSlopeData(Sender: TObject);
    procedure InvalidateSaturatedWaterContentData(Sender: TObject);
    procedure InvalidateInitialWaterContentData(Sender: TObject);
    procedure InvalidateBrooksCoreyExponentData(Sender: TObject);
    procedure InvalidateVerticalKData(Sender: TObject);
  protected
    class function GetTimeListLinkClass: TTimeListsModelLinkClass; override;
    procedure AddSpecificBoundary(AModel: TBaseModel); override;
    procedure CountArrayBoundaryCells(var BoundaryCount: Integer;
      DataArray1: TDataArray; DataSets: TList; AModel: TBaseModel); override;
    // See @link(TCustomListArrayBoundColl.AssignArrayCellValues
    // TCustomListArrayBoundColl.AssignArrayCellValues)
    procedure AssignArrayCellValues(DataSets: TList; ItemIndex: Integer;
      AModel: TBaseModel; PestSeries: TStringList; PestMethods: TPestMethodList;
      PestItemNames, TimeSeriesNames: TStringListObjectList); override;
    // See @link(TCustomListArrayBoundColl.InitializeTimeLists
    // TCustomListArrayBoundColl.InitializeTimeLists)
    procedure InitializeTimeLists(ListOfTimeLists: TList; AModel: TBaseModel;
      PestSeries: TStringList; PestMethods: TPestMethodList;
      PestItemNames, TimeSeriesNames: TStringListObjectList; Writer: TObject); override;
    // See @link(TCustomNonSpatialBoundColl.ItemClass
    // TCustomNonSpatialBoundColl.ItemClass)
    class function ItemClass: TBoundaryItemClass; override;
    // @name calls inherited @name and then sets the length of
    // the @link(TRivStorage.RivArray) at ItemIndex in
    // @link(TCustomMF_BoundColl.Boundaries) to BoundaryCount.
    // @SeeAlso(TCustomMF_BoundColl.SetBoundaryStartAndEndTime
    // TCustomMF_BoundColl.SetBoundaryStartAndEndTime)
    procedure SetBoundaryStartAndEndTime(BoundaryCount: Integer;
      Item: TCustomModflowBoundaryItem; ItemIndex: Integer; AModel: TBaseModel); override;
  end;

  TSfr_Cell = class(TValueCell)
  private
    FValues: TSfrRecord;
    FStressPeriod: integer;
    function GetStreamBedThickness: double;
    function GetHydraulicConductivity: double;
    function GetStreambedElevation: double;
    function GetHydraulicConductivityAnnotation: string;
    function GetStreambedElevationAnnotation: string;
    function GetStreamBedThicknessAnnotation: string;
    function GetStreamSlope: double;
    function GetStreamSlopeAnnotation: string;
    function GetBrooksCoreyExponent: double;
    function GetBrooksCoreyExponentAnnotation: string;
    function GetInitialWaterContent: double;
    function GetInitialWaterContentAnnotation: string;
    function GetSaturatedWaterContent: double;
    function GetSaturatedWaterContentAnnotation: string;
    function GetVerticalK: double;
    function GetVerticalKAnnotation: string;
    function GetReachLength: double;
    function GetReachLengthAnnotation: string;
    function GetLgrReachLength: double;
    procedure SetValues(const Value: TSfrRecord);
  protected
    function GetColumn: integer; override;
    function GetLayer: integer; override;
    function GetRow: integer; override;
    procedure SetColumn(const Value: integer); override;
    procedure SetLayer(const Value: integer); override;
    procedure SetRow(const Value: integer); override;
    function GetIntegerValue(Index: integer; AModel: TBaseModel): integer; override;
    function GetRealValue(Index: integer; AModel: TBaseModel): double; override;
    function GetRealAnnotation(Index: integer; AModel: TBaseModel): string; override;
    function GetIntegerAnnotation(Index: integer; AModel: TBaseModel): string; override;
    procedure Cache(Comp: TCompressionStream; Strings: TStringList); override;
    procedure Restore(Decomp: TDecompressionStream; Annotations: TStringList); override;
    function GetSection: integer; override;
    procedure RecordStrings(Strings: TStringList); override;
    function GetPestName(Index: Integer): string; override;
  public
    property Values: TSfrRecord read FValues write SetValues;
    property StressPeriod: integer read FStressPeriod write FStressPeriod;
    property HydraulicConductivity: double read GetHydraulicConductivity;
    property StreambedElevation: double read GetStreambedElevation;
    property StreamBedThickness: double read GetStreamBedThickness;
    property StreamSlope: double read GetStreamSlope;
    property HydraulicConductivityAnnotation: string read GetHydraulicConductivityAnnotation;
    property StreambedElevationAnnotation: string read GetStreambedElevationAnnotation;
    property StreamBedThicknessAnnotation: string read GetStreamBedThicknessAnnotation;
    property StreamSlopeAnnotation: string read GetStreamSlopeAnnotation;

    property SaturatedWaterContent: double read GetSaturatedWaterContent;
    property InitialWaterContent: double read GetInitialWaterContent;
    property BrooksCoreyExponent: double read GetBrooksCoreyExponent;
    property VerticalK: double read GetVerticalK;
    property ReachLength: double read GetReachLength;
    property LgrReachLength: double read GetLgrReachLength;

    property ReachLengthAnnotation: string read GetReachLengthAnnotation;
    property SaturatedWaterContentAnnotation: string read GetSaturatedWaterContentAnnotation;
    property InitialWaterContentAnnotation: string read GetInitialWaterContentAnnotation;
    property BrooksCoreyExponentAnnotation: string read GetBrooksCoreyExponentAnnotation;
    property VerticalKAnnotation: string read GetVerticalKAnnotation;
    function IsIdentical(AnotherCell: TValueCell): boolean; override;
  end;

procedure CountArrayBoundaryCellsSfr(var BoundaryCount: Integer;
  DataArray1: TDataArray; DataSets: TList; AModel: TBaseModel;
  ScreenObject: TObject);

const
  ReachLengthPosition = 0;
  HydraulicConductivityPosition = 1;
  StreamBedThicknessPosition = 2;
  StreambedElevationPosition = 3;
  StreamSlopePosition = 4;
  SaturatedWaterContentPosition = 5;
  InitialWaterContentPosition = 6;
  BrooksCoreyExponentPosition = 7;
  VerticalKPosition = 8;

implementation

uses ScreenObjectUnit, PhastModelUnit, ModflowSfrUnit, frmGoPhastUnit;

resourcestring
  StrReachLength = 'Reach length';
  StrLGRReachLength = 'LGR Reach length';
  StrLGRReachLengthLc = ' LGR reach length';
  StrStreambedThickness = 'Streambed thickness';
  StrStreambedElevation = 'Streambed elevation';
  StrHydraulicConductivi = 'Hydraulic conductivity';
  StrHydraulicConductivMult = ' Hydraulic conductivity multiplier';
  StrSlope = 'Slope';
  StrSaturatedWaterCont = 'Saturated water content';
  StrInitialWaterConten = 'Initial water content';
  StrBrooksCoreyExponen = 'Brooks-Corey exponent';
  StrMaximumVerticalUns = 'Maximum vertical unsaturated hydraulic conductivi' +
  'ty';

{ TSfrItem }

procedure TSfrItem.Assign(Source: TPersistent);
var
  Sfr: TSfrItem;
begin
  // if Assign is updated, update IsSame too.
  if Source is TSfrItem then
  begin
    Sfr := TSfrItem(Source);
    ReachLength := Sfr.ReachLength;
    HydraulicConductivity := Sfr.HydraulicConductivity;
    StreamBedThickness := Sfr.StreamBedThickness;
    StreambedElevation := Sfr.StreambedElevation;
    StreamSlope := Sfr.StreamSlope;
    SaturatedWaterContent := Sfr.SaturatedWaterContent;
    InitialWaterContent := Sfr.InitialWaterContent;
    BrooksCoreyExponent := Sfr.BrooksCoreyExponent;
    VerticalK := Sfr.VerticalK;
  end;
  inherited;
end;

procedure TSfrItem.AssignObserverEvents(Collection: TCollection);
var
  ParentCollection: TSfrCollection;
  ReachLengthObserver: TObserver;
  HydraulicConductivityObserver: TObserver;
  BedThicknessObserver: TObserver;
  StreambedElevationObserver: TObserver;
  StreamSlopeObserver: TObserver;
  SaturatedWaterContentObserver: TObserver;
  InitialWaterContentObserver: TObserver;
  BrooksCoreyExponentObserver: TObserver;
  VerticalKObserver: TObserver;
begin
  ParentCollection := Collection as TSfrCollection;
  ReachLengthObserver := FObserverList[ReachLengthPosition];
  ReachLengthObserver.OnUpToDateSet := ParentCollection.InvalidateReachLengthData;
  HydraulicConductivityObserver := FObserverList[HydraulicConductivityPosition];
  HydraulicConductivityObserver.OnUpToDateSet := ParentCollection.InvalidateHydraulicConductivityData;
  BedThicknessObserver := FObserverList[StreamBedThicknessPosition];
  BedThicknessObserver.OnUpToDateSet := ParentCollection.InvalidateBedThicknessData;
  StreambedElevationObserver  := FObserverList[StreambedElevationPosition];
  StreambedElevationObserver.OnUpToDateSet := ParentCollection.InvalidateStreambedElevationData;
  StreamSlopeObserver := FObserverList[StreamSlopePosition];
  StreamSlopeObserver.OnUpToDateSet := ParentCollection.InvalidateStreamSlopeData;
  SaturatedWaterContentObserver := FObserverList[SaturatedWaterContentPosition];
  SaturatedWaterContentObserver.OnUpToDateSet := ParentCollection.InvalidateSaturatedWaterContentData;
  InitialWaterContentObserver := FObserverList[InitialWaterContentPosition];
  InitialWaterContentObserver.OnUpToDateSet := ParentCollection.InvalidateInitialWaterContentData;
  BrooksCoreyExponentObserver := FObserverList[BrooksCoreyExponentPosition];
  BrooksCoreyExponentObserver.OnUpToDateSet := ParentCollection.InvalidateBrooksCoreyExponentData;
  VerticalKObserver := FObserverList[VerticalKPosition];
  VerticalKObserver.OnUpToDateSet := ParentCollection.InvalidateVerticalKData;
end;

function TSfrItem.BoundaryFormulaCount: integer;
begin
  result := 9;
end;

constructor TSfrItem.Create(Collection: TCollection);
begin
  inherited;
  ReachLength := StrObjectIntersectLength;
  StreambedElevation := '0';
  HydraulicConductivity := '0';
  StreamSlope := '0';
  BrooksCoreyExponent := '0';
  VerticalK := '0';
  InitialWaterContent := '0';
  SaturatedWaterContent := '0';
end;

procedure TSfrItem.CreateFormulaObjects;
begin
  FReachLength := CreateFormulaObject(dso3D);
  FHydraulicConductivity := CreateFormulaObject(dso3D);
  FStreamBedThickness := CreateFormulaObject(dso3D);
  FStreambedElevation := CreateFormulaObject(dso3D);
  FStreamSlope := CreateFormulaObject(dso3D);
  FSaturatedWaterContent := CreateFormulaObject(dso3D);
  FInitialWaterContent := CreateFormulaObject(dso3D);
  FBrooksCoreyExponent := CreateFormulaObject(dso3D);
  FVerticalK := CreateFormulaObject(dso3D);
end;

destructor TSfrItem.Destroy;
var
  Index: integer;
begin
  for Index := 0 to BoundaryFormulaCount - 1 do
  begin
    BoundaryFormula[Index] := '0';
  end;
  inherited;
end;

function TSfrItem.GetBoundaryFormula(Index: integer): string;
begin
  case Index of
    ReachLengthPosition:
      result := ReachLength;
    HydraulicConductivityPosition:
      result := HydraulicConductivity;
    StreamBedThicknessPosition:
      result := StreamBedThickness;
    StreambedElevationPosition:
      result := StreambedElevation;
    StreamSlopePosition:
      result := StreamSlope;
    SaturatedWaterContentPosition:
      result := SaturatedWaterContent;
    InitialWaterContentPosition:
      result := InitialWaterContent;
    BrooksCoreyExponentPosition:
      result := BrooksCoreyExponent;
    VerticalKPosition:
      result := VerticalK;
    else Assert(False);
  end;
end;

function TSfrItem.GetBrooksCoreyExponent: string;
begin
  Result := FBrooksCoreyExponent.Formula;
  ResetItemObserver(BrooksCoreyExponentPosition);
end;

function TSfrItem.GetHydraulicConductivity: string;
begin
  Result := FHydraulicConductivity.Formula;
  ResetItemObserver(HydraulicConductivityPosition);
end;

function TSfrItem.GetInitialWaterContent: string;
begin
  Result := FInitialWaterContent.Formula;
  ResetItemObserver(InitialWaterContentPosition);
end;

procedure TSfrItem.GetPropertyObserver(Sender: TObject; List: TList);
begin
  if Sender = FReachLength then
  begin
    List.Add(FObserverList[ReachLengthPosition]);
  end;
  if Sender = FHydraulicConductivity then
  begin
    List.Add(FObserverList[HydraulicConductivityPosition]);
  end;
  if Sender = FStreamBedThickness then
  begin
    List.Add(FObserverList[StreamBedThicknessPosition]);
  end;
  if Sender = FStreambedElevation then
  begin
    List.Add(FObserverList[StreambedElevationPosition]);
  end;
  if Sender = FStreamSlope then
  begin
    List.Add(FObserverList[StreamSlopePosition]);
  end;
  if Sender = FSaturatedWaterContent then
  begin
    List.Add(FObserverList[SaturatedWaterContentPosition]);
  end;
  if Sender = FInitialWaterContent then
  begin
    List.Add(FObserverList[InitialWaterContentPosition]);
  end;
  if Sender = FBrooksCoreyExponent then
  begin
    List.Add(FObserverList[BrooksCoreyExponentPosition]);
  end;
  if Sender = FVerticalK then
  begin
    List.Add(FObserverList[VerticalKPosition]);
  end;
end;

function TSfrItem.GetReachLength: string;
begin
  Result := FReachLength.Formula;
  ResetItemObserver(ReachLengthPosition);
end;

function TSfrItem.GetSaturatedWaterContent: string;
begin
  Result := FSaturatedWaterContent.Formula;
  ResetItemObserver(SaturatedWaterContentPosition);
end;

function TSfrItem.GetStreambedElevation: string;
begin
  Result := FStreambedElevation.Formula;
  ResetItemObserver(StreambedElevationPosition);
end;

function TSfrItem.GetStreamBedThickness: string;
begin
  Result := FStreamBedThickness.Formula;
  ResetItemObserver(StreamBedThicknessPosition);
end;

function TSfrItem.GetStreamSlope: string;
begin
  Result := FStreamSlope.Formula;
  ResetItemObserver(StreamSlopePosition);
end;

function TSfrItem.GetVerticalK: string;
begin
  Result := FVerticalK.Formula;
  ResetItemObserver(VerticalKPosition);
end;

procedure TSfrItem.InvalidateModel;
var
  PhastModel: TPhastModel;
  ScreenObj: TObject;
begin
  inherited;
  PhastModel := Model as TPhastModel;
  if (PhastModel <> nil)
    and not (csDestroying in PhastModel.ComponentState)
    and not PhastModel.Clearing then
  begin
    ScreenObj := ScreenObject;
    if (ScreenObj <> nil)
      and (ScreenObj as TScreenObject).CanInvalidateModel then
    begin
      PhastModel.InvalidateMfSfrSegmentReachAndIcalc(self);
    end;
  end;
end;

function TSfrItem.IsSame(AnotherItem: TOrderedItem): boolean;
var
  Item: TSfrItem;
begin
  result := (AnotherItem is TSfrItem) and inherited IsSame(AnotherItem);
  if result then
  begin
    Item := TSfrItem(AnotherItem);
    result :=
      (Item.ReachLength = ReachLength)
      and (Item.HydraulicConductivity = HydraulicConductivity)
      and (Item.StreamBedThickness = StreamBedThickness)
      and (Item.StreambedElevation = StreambedElevation)
      and (Item.StreamSlope = StreamSlope)
      and (Item.SaturatedWaterContent = SaturatedWaterContent)
      and (Item.InitialWaterContent = InitialWaterContent)
      and (Item.BrooksCoreyExponent = BrooksCoreyExponent)
      and (Item.VerticalK = VerticalK);
  end;
end;

procedure TSfrItem.RemoveFormulaObjects;
begin
  frmGoPhast.PhastModel.FormulaManager.Remove(FVerticalK,
    GlobalRemoveModflowBoundaryItemSubscription, GlobalRestoreModflowBoundaryItemSubscription, self);
  frmGoPhast.PhastModel.FormulaManager.Remove(FBrooksCoreyExponent,
    GlobalRemoveModflowBoundaryItemSubscription, GlobalRestoreModflowBoundaryItemSubscription, self);
  frmGoPhast.PhastModel.FormulaManager.Remove(FInitialWaterContent,
    GlobalRemoveModflowBoundaryItemSubscription, GlobalRestoreModflowBoundaryItemSubscription, self);
  frmGoPhast.PhastModel.FormulaManager.Remove(FSaturatedWaterContent,
    GlobalRemoveModflowBoundaryItemSubscription, GlobalRestoreModflowBoundaryItemSubscription, self);
  frmGoPhast.PhastModel.FormulaManager.Remove(FStreamSlope,
    GlobalRemoveModflowBoundaryItemSubscription, GlobalRestoreModflowBoundaryItemSubscription, self);
  frmGoPhast.PhastModel.FormulaManager.Remove(FStreambedElevation,
    GlobalRemoveModflowBoundaryItemSubscription, GlobalRestoreModflowBoundaryItemSubscription, self);
  frmGoPhast.PhastModel.FormulaManager.Remove(FStreamBedThickness,
    GlobalRemoveModflowBoundaryItemSubscription, GlobalRestoreModflowBoundaryItemSubscription, self);
  frmGoPhast.PhastModel.FormulaManager.Remove(FHydraulicConductivity,
    GlobalRemoveModflowBoundaryItemSubscription, GlobalRestoreModflowBoundaryItemSubscription, self);
  frmGoPhast.PhastModel.FormulaManager.Remove(FReachLength,
    GlobalRemoveModflowBoundaryItemSubscription, GlobalRestoreModflowBoundaryItemSubscription, self);
end;

function TSfrItem.ScreenObject: TObject;
var
  SfrCollection: TSfrCollection;
begin
  SfrCollection := Collection as TSfrCollection;
  Assert(SfrCollection <> nil);
  result := SfrCollection.ScreenObject;
end;

procedure TSfrItem.SetBoundaryFormula(Index: integer; const Value: string);
begin
  case Index of
    ReachLengthPosition:
      ReachLength := Value;
    HydraulicConductivityPosition:
      HydraulicConductivity := Value;
    StreamBedThicknessPosition:
      StreamBedThickness := Value;
    StreambedElevationPosition:
      StreambedElevation := Value;
    StreamSlopePosition:
      StreamSlope := Value;
    SaturatedWaterContentPosition:
      SaturatedWaterContent := Value;
    InitialWaterContentPosition:
      InitialWaterContent := Value;
    BrooksCoreyExponentPosition:
      BrooksCoreyExponent := Value;
    VerticalKPosition:
      VerticalK := Value;
    else Assert(False);
  end;
end;

procedure TSfrItem.SetBrooksCoreyExponent(const Value: string);
var
  PhastModel: TPhastModel;
  ScreenObj: TObject;
begin
  if FBrooksCoreyExponent.Formula <> Value then
  begin
    UpdateFormulaBlocks(Value, BrooksCoreyExponentPosition, FBrooksCoreyExponent);
    PhastModel := Model as TPhastModel;
    if (PhastModel <> nil)
      and not (csDestroying in PhastModel.ComponentState)
      and not PhastModel.Clearing then
    begin
      ScreenObj := ScreenObject;
      if (ScreenObj <> nil)
        and (ScreenObj as TScreenObject).CanInvalidateModel then
      begin
        PhastModel.InvalidateMfSfrBrooksCorey(self);
      end;
    end;
  end;
end;

procedure TSfrItem.SetHydraulicConductivity(const Value: string);
var
  PhastModel: TPhastModel;
  ScreenObj: TObject;
begin
  if FHydraulicConductivity.Formula <> Value then
  begin
    UpdateFormulaBlocks(Value, HydraulicConductivityPosition, FHydraulicConductivity);
    PhastModel := Model as TPhastModel;
    if (PhastModel <> nil)
      and not (csDestroying in PhastModel.ComponentState)
      and not PhastModel.Clearing then
    begin
      ScreenObj := ScreenObject;
      if (ScreenObj <> nil)
        and (ScreenObj as TScreenObject).CanInvalidateModel then
      begin
        PhastModel.InvalidateMfSfrStreamK(self);
      end;
    end;
  end;
end;

procedure TSfrItem.SetInitialWaterContent(const Value: string);
var
  PhastModel: TPhastModel;
  ScreenObj: TObject;
begin
  if FInitialWaterContent.Formula <> Value then
  begin
    UpdateFormulaBlocks(Value, InitialWaterContentPosition, FInitialWaterContent);
    PhastModel := Model as TPhastModel;
    if (PhastModel <> nil)
      and not (csDestroying in PhastModel.ComponentState)
      and not PhastModel.Clearing then
    begin
      ScreenObj := ScreenObject;
      if (ScreenObj <> nil)
        and (ScreenObj as TScreenObject).CanInvalidateModel then
      begin
        PhastModel.InvalidateMfSfrInitialWaterContent(self);
      end;
    end;
  end;
end;

procedure TSfrItem.SetReachLength(const Value: string);
var
  PhastModel: TPhastModel;
  ScreenObj: TObject;
begin
  if FReachLength.Formula <> Value then
  begin
    UpdateFormulaBlocks(Value, ReachLengthPosition, FReachLength);
    PhastModel := Model as TPhastModel;
    if (PhastModel <> nil)
      and not (csDestroying in PhastModel.ComponentState)
      and not PhastModel.Clearing then
    begin
      ScreenObj := ScreenObject;
      if (ScreenObj <> nil)
        and (ScreenObj as TScreenObject).CanInvalidateModel then
      begin
        PhastModel.InvalidateMfSfrReachLength(self);
      end;
    end;
  end;
end;

procedure TSfrItem.SetSaturatedWaterContent(const Value: string);
var
  PhastModel: TPhastModel;
  ScreenObj: TObject;
begin
  if FSaturatedWaterContent.Formula <> Value then
  begin
    UpdateFormulaBlocks(Value, SaturatedWaterContentPosition, FSaturatedWaterContent);
    PhastModel := Model as TPhastModel;
    if (PhastModel <> nil)
      and not (csDestroying in PhastModel.ComponentState)
      and not PhastModel.Clearing then
    begin
      ScreenObj := ScreenObject;
      if (ScreenObj <> nil)
        and (ScreenObj as TScreenObject).CanInvalidateModel then
      begin
        PhastModel.InvalidateMfSfrSaturatedWaterContent(self);
      end;
    end;
  end;
end;

procedure TSfrItem.SetStreambedElevation(const Value: string);
var
  PhastModel: TPhastModel;
  ScreenObj: TObject;
begin
  if FStreambedElevation.Formula <> Value then
  begin
    UpdateFormulaBlocks(Value, StreambedElevationPosition, FStreambedElevation);
    PhastModel := Model as TPhastModel;
    if (PhastModel <> nil)
      and not (csDestroying in PhastModel.ComponentState)
      and not PhastModel.Clearing then
    begin
      ScreenObj := ScreenObject;
      if (ScreenObj <> nil)
        and (ScreenObj as TScreenObject).CanInvalidateModel then
      begin
        PhastModel.InvalidateMfSfrStreamTop(self);
      end;
    end;
  end;
end;

procedure TSfrItem.SetStreamBedThickness(const Value: string);
var
  PhastModel: TPhastModel;
  ScreenObj: TObject;
begin
  if FStreamBedThickness.Formula <> Value then
  begin
    UpdateFormulaBlocks(Value, StreamBedThicknessPosition, FStreamBedThickness);
    PhastModel := Model as TPhastModel;
    if (PhastModel <> nil)
      and not (csDestroying in PhastModel.ComponentState)
      and not PhastModel.Clearing then
    begin
      ScreenObj := ScreenObject;
      if (ScreenObj <> nil)
        and (ScreenObj as TScreenObject).CanInvalidateModel then
      begin
        PhastModel.InvalidateMfSfrStreamThickness(self);
      end;
    end;
  end;
end;

procedure TSfrItem.SetStreamSlope(const Value: string);
var
  PhastModel: TPhastModel;
  ScreenObj: TObject;
begin
  if FStreamSlope.Formula <> Value then
  begin
    UpdateFormulaBlocks(Value, StreamSlopePosition, FStreamSlope);
    PhastModel := Model as TPhastModel;
    if (PhastModel <> nil)
      and not (csDestroying in PhastModel.ComponentState)
      and not PhastModel.Clearing then
    begin
      ScreenObj := ScreenObject;
      if (ScreenObj <> nil)
        and (ScreenObj as TScreenObject).CanInvalidateModel then
      begin
        PhastModel.InvalidateMfSfrStreamSlope(self);
      end;
    end;
  end;
end;

procedure TSfrItem.SetVerticalK(const Value: string);
var
  PhastModel: TPhastModel;
  ScreenObj: TObject;
begin
  if FVerticalK.Formula <> Value then
  begin
    UpdateFormulaBlocks(Value, VerticalKPosition, FVerticalK);
    PhastModel := Model as TPhastModel;
    if (PhastModel <> nil)
      and not (csDestroying in PhastModel.ComponentState)
      and not PhastModel.Clearing then
    begin
      ScreenObj := ScreenObject;
      if (ScreenObj <> nil)
        and (ScreenObj as TScreenObject).CanInvalidateModel then
      begin
        PhastModel.InvalidateMfSfrVerticalUnsatK(self);
      end;
    end;
  end;
end;

{ TSfrCollection }

procedure TSfrCollection.AddSpecificBoundary(AModel: TBaseModel);
begin