{@name writes the FMP input file for MODFLOW-OWHM version 2.}
unit ModflowFmp4WriterUnit;

interface

uses
  System.Classes, System.Contnrs, Vcl.Forms, System.SysUtils,
  CustomModflowWriterUnit, PhastModelUnit, ModflowFmpWellUnit, ModflowCellUnit,
  ModflowPackageSelectionUnit, ScreenObjectUnit, ModflowBoundaryUnit, RbwParser,
  DataSetUnit, OrderedCollectionUnit, GoPhastTypes, ModflowBoundaryDisplayUnit,
  ModflowFmpSoilUnit, ModflowFmpBaseClasses, ModflowFmpCropUnit;

type
  TWriteLocation = (wlMain, wlOpenClose, wlOFE, wlCID, wlFID, wlRoot, wlCropUse, wlETR,
    wlEtFrac, wlSwLosses, wlPFLX, wlCropFunc, wlWaterCost, wlDeliveries,
    wlSemiRouteDelivery, wlSemiRouteReturn, wlCall, wlEfficiency,
    wlEfficiencyImprovement, wlBareRunoffFraction,
    wlBarePrecipitationConsumptionFraction, wlCapillaryFringe, wlSoilID,
    wlSurfaceK, wlBareEvap, wlDirectRecharge, wlPrecipPotConsumption,
    wlNrdInfilLoc, wlLandUseAreaFraction, wlCropCoefficient, wlConsumptiveUse,
    wlIrrigation, wlRootDepth, wlGwRootInteraction, wlTranspirationFraction,
    wlEvaporationIrrigationFraction, wlFractionOfPrecipToSurfaceWater,
    wlFractionOfIrrigToSurfaceWater, wlAddedDemand, wlCropHasSalinityDemand,
    wlAddedDemandRunoffSplit, wlIrrigationUniformity, wlDeficiencyScenario,
    wlWaterSource, wlAddedCropDemandFlux, wlAddedCropDemandRate,
    wlPrecipicationTable, wlSoilCoefficient, wlNoReturnFlow,
    wlSemiRouteDeliveryLowerLimit, wlSemiRouteDeliveryUpperLimit, wlSwAllotment,
    wlGwAllotment, wlRootPressure, wlPondDepth, wlNoCropMeansBareSoil,
    wlNoEvapErrCorrection, wlSaltSupplyConcentration, wlCropSalinityTolerance,
    wlCropMaxLeachRequirement, wlCropLeachRequirement, wlSalinityAppliedWater,
    wlSupplyWells, wlCropNames, wlSpecifyPrintCrops);

  TWriteTransientData = procedure (WriteLocation: TWriteLocation) of object;

  TCheckDataSet = procedure (IntegerArray: TDataArray;
    const ErrorMessage: string) of object;

  TTransientDataUsed = function (Sender: TObject): Boolean of object;

  TGetCropCollection = function (Crop: TCropItem): TOwhmCollection of object;


  TEvaluateProcedure = procedure of object;

  TUpdateRequirements = record
    EvaluateProcedure: TEvaluateProcedure;
    TransientDataUsed: TTransientDataUsed;
    WriteLocation: TWriteLocation;
    TimeLists: TModflowBoundListOfTimeLists;
  end;

  TRequiredValues = record
    WriteLocation: TWriteLocation;
    Comment: string;
    DataTypeIndex: Integer;
    DataType: TRbwDataType;
    DefaultValue: Double;
    ErrorID: string;
    ID: string;
    StaticDataName: string;
    WriteTransientData: Boolean;
    CheckProcedure: TCheckDataSet;
    CheckError: string;
    Option: string;
    FarmProperty: TFarmProperty;
    LandUseStaticFileNames: TStringList;
    MaxDataTypeIndex: Integer;
  end;

  TPestValues = record
    Formula: string;
    PestName: string;
    PestSeriesName: string;
    PestSeriesMethod: TPestParamMethod;
    FormulaErrorMessage: string;
    ErrorObjectName: string;
    ParameterUsed: Boolean;
  end;

  TModflowFmp4Writer = class(TCustomListWriter)
  private
    FFarmProcess4: TFarmProcess4;
    FClimatePackage: TFarmProcess4Climate;
    FLandUse: TFarmProcess4LandUse;
    FSurfaceWater4: TFarmProcess4SurfaceWater;
    FSalinityFlush: TFarmProcess4SalinityFlush;
    FSoil4: TFarmProcess4Soil;
    FAllotments: TFarmProcess4Allotments;
    FFarmWells4: TFarmProcess4Wells;

    FACtiveSurfaceCells: array of array of boolean;
    FWriteLocation: TWriteLocation;

    FFarmIDs: TList;
    FRefEts: TList;
    FPrecip: TList;
    FCropIDs: TList;
    FEfficiencies: TList;
    FEfficiencyImprovements: TList;
    FBareRunoffFractions: TList;
    FBarePrecipitationConsumptionFractions: TList;
    FEvapBare: TList;
    FDirectRecharge: TList;
    FPrecipPotConsumption: TList;
    FNrdInfilLocation: TList;
    FLandUseAreaFraction: TList;
    FCropCoefficient: TList;
    FConsumptiveUse: TList;
    FIrrigation: TList;
    FRootDepth: TList;
    FTranspirationFraction: TList;
    FEvaporationIrrigationFraction: TList;
    FFractionOfPrecipToSurfaceWater: TList;
    FFractionOfIrrigToSurfaceWater: TList;
    FAddedDemand: TList;
    FCropHasSalinityDemand: TList;
    FAddedDemandRunoffSplit: TList;

    FFarmWellID: Integer;
    FBaseName: string;

    FFID_FileStream: TFileStream;
    FOpenCloseFileStream: TFileStream;
    FPFLX_FileStream: TFileStream;
    FETR_FileStream: TFileStream;
    FCID_FileStream: TFileStream;
    FEFFICIENCY_FileStream: TFileStream;
    FEFFICIENCY_IMPROVEMENT_FileStream: TFileStream;
    FBARE_RUNOFF_FRACTION_FileStream: TFileStream;
    FBarePrecipitationConsumptionFractionFileStream: TFileStream;
    FCapillaryFringeFileStream: TFileStream;
    FSoilIdStream: TFileStream;
    FSurfaceKFileStream: TFileStream;
    FEvapBareFileStream: TFileStream;
    FDirectRechargeFileStream: TFileStream;
    FPrecipPotConsumptionFileStream: TFileStream;
    FNrdInfilLocationFileStream: TFileStream;
    FCropcoefficientFileStream: TFileStream;
    FLandUseAreaFractionFileStream: TFileStream;
    FConsumptiveUseFileStream: TFileStream;
    FIrrigationFileStream: TFileStream;
    FRootDepthFileStream: TFileStream;
    FGwRootInteractionStream: TFileStream;
    FTranspirationFractionFileStream: TFileStream;
    FEvaporationIrrigationFractionFileStream: TFileStream;
    FFractionOfPrecipToSurfaceWaterFileStream: TFileStream;
    FFractionOfIrrigToSurfaceWaterFileStream: TFileStream;
    FAddedDemandFileStream: TFileStream;
    FCropHasSalinityDemandFileStream: TFileStream;
    FAddedDemandRunoffSplitFileStream: TFileStream;
    FNWBS: Integer;
    FIrrigationUniformityFileStream: TFileStream;
    FDeficiencyScenarioFileStream: TFileStream;
    FWaterSourceFileStream: TFileStream;
    FAddedCropDemandFluxFileStream: TFileStream;
    FAddedCropDemandRateFileStream: TFileStream;
    FFmpSoils: TSoilCollection;
    FEffectivPrecipitationTableFileStream: TFileStream;
    FEffectivCoefficientTableFileStream: TFileStream;
    FNonRoutedDeliveryFileStream: TFileStream;
    FNrdTypes: Integer;
    FNoReturnFlowFileStream: TFileStream;
    FSemiRoutedDeliveryFileStream: TFileStream;
    FSemiRoutedDeliveryLowerLimitFileStream: TFileStream;
    FSemiRoutedDeliveryUpperLimitFileStream: TFileStream;
    FSemiRoutedReturnFileStream: TFileStream;
    FSurfaceWaterAllotmentFileStream: TFileStream;
    FGroundWaterAllotmentFileStream: TFileStream;
    FRootPressureFileStream: TFileStream;
    FPondDepthFileStream: TFileStream;
    FConvertToBareFileStream: TFileStream;
    FSumOneCorrectionFileStream: TFileStream;
    FSaltSupplyConcentrationFileStream: TFileStream;
    FCropSalinityToleranceFileStream: TFileStream;
    FCropMaxLeachingRequirementFileStream: TFileStream;
    FCropLeachingRequirementFileStream: TFileStream;
    FCropSalinityAppliedWaterFileStream: TFileStream;
    FSupplyWellFileStream: TFileStream;
    FCropNamesFileStream: TFileStream;
    FCropPrintFileStream: TFileStream;
    procedure WriteGobalDimension;
    procedure WriteOutput;
    procedure WriteOptions;
    procedure WriteWaterBalanceSubregion;
    procedure WriteSoil;
    procedure WriteClimate;
    procedure WriteSurfaceWater;
    procedure WriteSupplyWell;
    procedure WriteAllotments;
    procedure WriteLandUse;
    procedure WriteSalinityFlush;
    procedure WriteSurfaceWaterIrrigation;
    procedure WriteFileInternal;
    procedure EvaluateAll;

    // WBS
    // WBS_NAME
    procedure WriteFarmNames;

    // LOCATION
    procedure EvaluateFarmID;
    procedure WriteFarmLocation;

    // EFFICIENCY
    procedure EvaluateEfficiency;
    procedure WriteEfficiency;

    // EFFICIENCY_IMPROVEMENT
    procedure EvaluateEfficiencyImprovement;
    procedure WriteEfficiencyImprovement;

    // DEFFICIENCY_SCENARIO
    procedure WriteDeficiencyScenario;

    // PRORATE_DEFICIENCY
    procedure WriteProrateDeficiency;

    // WATERSOURCE
    procedure WriteWaterSource;

    // BARE_RUNOFF_FRACTION
    procedure EvaluateBareRunoffFraction;
    procedure WriteBareRunoffFraction;

    // BARE_PRECIPITATON_CONSUMPTION_FRACTION
    procedure EvaluateBarePrecipitationConsumptionFraction;
    procedure WriteBarePrecipitationConsumptionFraction;

    // ADDED_DEMAND_RUNOFF_SPLIT
    procedure EvaluateAddedDemandRunoffSplit;
    procedure WriteAddedDemandRunoffSplit;


    // ADDED_CROP_DEMAND FLUX
    procedure WriteAddedCropDemandFlux;

    // ADDED_CROP_DEMAND Rate
    procedure WriteAddedCropDemandRate;

    // soil
    procedure WriteCapillaryFringe;
    procedure WriteSoilID;
    procedure WriteSoilCoefficient;
    procedure WriteSurfaceK;
    procedure WriteEffectivePrecipitationTable;

    // climate
    procedure EvaluateReferenceET;
    procedure WriteRefET;

    procedure EvaluatePrecip;
    procedure WritePrecipitation;

    procedure EvaluateBareEvap;
    procedure WriteBareEvap;

    procedure EvaluateDirectRecharge;
    procedure WriteDirectRecharge;

    procedure EvaluatePrecipPotConsumption;
    procedure WritePrecipPotConsumption;

    // Surface water
    // NON_ROUTED_DELIVERY
    procedure WriteNonRoutedDelivery;

    // NRD_INFILTRATION_LOCATION
    procedure EvaluateNrdInfilLocation;
    procedure WriteNrdInfilLocation;
    procedure PrintSurfaceWaterOutputOptions;

    procedure WriteSemiRoutedDelivery;
    procedure WriteSemiRoutedDeliveryLowerLimit;
    procedure WriteSemiRoutedDeliveryUpperLimit;
    procedure WriteSemiRoutedDeliveryClosureTolerance;

    procedure WriteNoReturnFlow;
    procedure WriteSemiRoutedReturn;
    procedure WriteRoutedReturn;
    procedure WriteRebuildFullyRoutedReturn;

    // ALLOTMENT
    // SURFACE_WATER
    procedure WriteSurfaceWaterAllotment;
    // GROUNDWATER
    procedure WriteGroundWaterAllotment;

    // Land use
    procedure WriteLandUseOption;
    // LOCATION
    procedure EvaluateCropID;
    procedure WriteLandUseLocation;

    // LAND_USE_AREA_FRACTION
    procedure EvaluateLandUseAreaFraction;
    function GetLandUseFractionCollection(Crop: TCropItem): TOwhmCollection;
    procedure WriteLandUseAreaFraction;

    procedure WriteLandUsePrintOptions;

    // SPECIFY_PRINT_ALL_CROPS
    procedure WriteSpecifyPrintAllCrops;
    // CROP_NAME
    procedure WriteCropName;

    // CROP_COEFFICIENT
    procedure EvaluateCropCoefficient;
    function GetCropCoefficentCollection(Crop: TCropItem): TOwhmCollection;
    procedure WriteCropCoefficient;

    // CONSUMPTIVE_USE
    procedure EvaluateConsumptiveUse;
    function GetConsumptiveUseCollection(Crop: TCropItem): TOwhmCollection;
    procedure WriteConsumptiveUse;  // finish list

    // IRRIGATION
    procedure EvaluateIrrigation;
    procedure WriteIrrigation;

    // ROOT_DEPTH
    procedure EvaluateRootDepth;
    function GetRootDepthCollection(Crop: TCropItem): TOwhmCollection;
    procedure WriteRootDepth; // finish list

//    ROOT_PRESSURE
    procedure WriteRootPressure;

    // GROUNDWATER_ROOT_INTERACTION
    procedure WriteGroundwaterRootInteraction;

    // TRANSPIRATION_FRACTION
    procedure EvaluateTranspirationFraction;
    function GetTranspirationFractionCollection(Crop: TCropItem): TOwhmCollection;
    procedure WriteTranspirationFraction;

    // EVAPORATION_IRRIGATION_FRACTION
    procedure EvaluateEvaporationIrrigationFraction;
    procedure WriteEvaporationIrrigationFraction;

    // SURFACEWATER_LOSS_FRACTION_PRECIPITATION
    procedure EvaluateFractionOfPrecipToSurfaceWater;
    function GetSWLossFracPrecipCollection(Crop: TCropItem): TOwhmCollection;
    procedure WriteFractionOfPrecipToSurfaceWater;

    // SURFACEWATER_LOSS_FRACTION_IRRIGATION
    procedure EvaluateFractionOfIrrigToSurfaceWater;
    procedure WriteFractionOfIrrigToSurfaceWater;

    // POND_DEPTH
    function GetPondDepthCollection(Crop: TCropItem): TOwhmCollection;
    procedure WritePondDepth;

    // ADDED_DEMAND
    procedure EvaluateAddedDemand;
    procedure WriteAddedDemand;

    // ZERO_CONSUMPTIVE_USE_BECOMES_BARE_SOIL
    function GetZeroConsumptiveUseBecomesBareSoilCollection(Crop: TCropItem): TOwhmCollection;
    procedure WriteZeroConsumptiveUseBecomesBareSoil;

    // EVAPORATION_IRRIGATION_FRACTION_SUM_ONE_CORRECTION
    function GetEvapIrrigateFracSumOneCorrectionCollection(Crop: TCropItem): TOwhmCollection;
    procedure WriteEvapIrrigateFracSumOneCorrection; // finish

    //  CROPS_THAT_SPECIFY_SURFACE_ELEVATION
    procedure WriteCropsThatSpecifySurfaceElevation; // should this be done?
    //  CROP_SURFACE_ELEVATION
    procedure WriteCropSurfaceElevation; // should this be done?
    //  CROP_SURFACE_ELEVATION_OFFSET
    procedure WriteSurfaceElevationOffset; // should this be done?


    // Salinity flush
    procedure WriteSalinityFlushPrintOptions;
    procedure WriteExpressionLineLength;
    procedure WriteExpressionVariableNearZero;
    procedure WriteSaltSupplyConcentration;
    procedure WriteIrrigationUniformity;

    // CROP_SALINITY_TOLERANCE
    function GetSalinityToleranceCollection(Crop: TCropItem): TOwhmCollection;
    procedure WriteCropSalinityTolerance;
    // CROP_MAX_LEACHING_REQUIREMENT
    function GetMaxLeachingRequirementCollection(Crop: TCropItem): TOwhmCollection;
    procedure WriteCropMaxLeachingRequirement;

    // CROP_LEACHING_REQUIREMENT
    function GetLeachingRequirementCollection(Crop: TCropItem): TOwhmCollection;
    procedure WriteCropLeachingRequirement;

    //CROP_SALINITY_APPLIED_WATER
    function GetSalinityAppliedWaterCollection(Crop: TCropItem): TOwhmCollection;
    procedure WriteSalinityAppliedWater;

    // SUPPLY_WELL
    procedure WriteMnwPumpSpread;
    procedure WriteSupplyWells;

    procedure EvaluateCropHasSalinityDemand;
    function GetCropHasSalinityDemandCollection(Crop: TCropItem): TOwhmCollection;
    procedure WriteCropHasSalinityDemand;

    procedure FreeFileStreams;
    // wbs location
//    procedure WriteDataSet26(TimeIndex: Integer);
    procedure CheckDataSetZeroOrPositive(IntegerArray: TDataArray;
      const ErrorMessage: string);
    procedure CheckDataSetZeroOrGETen(IntegerArray: TDataArray;
      const ErrorMessage: string);
    procedure CheckDataSetBetweenZeroAndOne(RealArray: TDataArray;
      const ErrorMessage: string);
    procedure CheckDataSetBetweenZeroAndFive(IntegerArray: TDataArray;
      const ErrorMessage: string);
    procedure EvaluateActiveCells;
    procedure RemoveErrorAndWarningMessages;
    procedure WriteTransientFmpArrayData(RequiredValues: TRequiredValues);
    function GetTransientList(WriteLocation: TWriteLocation): TList;
    function GetFileStreamName(WriteLocation: TWriteLocation): string;
    function GetFmpBoundary(ScreenObject: TScreenObject;
      WriteLocation: TWriteLocation): TModflowBoundary;
    procedure EvaluateTransientArrayData(WriteLocation: TWriteLocation);
//    procedure EvaluateMultTransientArrayData(WriteLocation: TWriteLocation);
    procedure WriteFmpArrayData(AFileName: string; RequiredValues: TRequiredValues);
    procedure WriteLandUseArrayData(AFileName: string; RequiredValues: TRequiredValues);
    procedure UpdateDisplay(UpdateRequirements: TUpdateRequirements);
    function TransientCropUsed(Sender: TObject): Boolean;
    function TransientRefEtUsed(Sender: TObject): Boolean;
    procedure GetScaleFactorsAndExternalFile(RequiredValues: TRequiredValues;
      var UnitConversionScaleFactor: string; var ExternalFileName: string;
      var ExternalScaleFileName: string);
    procedure WriteScaleFactorsID_andOption(RequiredValues: TRequiredValues;
      UnitConversionScaleFactor: string; ExternalScaleFileName: string);
    procedure WriteOwhmList(RequiredValues: TRequiredValues; AFileName: string;
      GetCollection: TGetCropCollection; const ErrorMessage: string);
    procedure WriteLeachList(RequiredValues: TRequiredValues; AFileName: string;
      GetCollection: TGetCropCollection; const ErrorMessage: string);
    procedure WriteSurfaceElevation;
    procedure WriteArrayTemplate(RequiredValues: TRequiredValues);
    function GetFormulaValue(var PestValues: TPestValues): Double;
    procedure AdjustFormulaForPest(var PestValues: TPestValues);
  protected
    procedure Evaluate; override;
    class function Extension: string; override;
    function Package: TModflowPackageSelection; override;
    function CellType: TValueCellType; override;
    function GetBoundary(ScreenObject: TScreenObject): TModflowBoundary;
      override;
    procedure WriteCell(Cell: TValueCell;
      const DataSetIdentifier, VariableIdentifiers: string); override;
    function ParameterType: TParameterType; override;
    procedure WriteParameterCells(CellList: TValueCellList; NLST: Integer;
      const VariableIdentifiers, DataSetIdentifier: string;
      AssignmentMethod: TUpdateMethod;
      MultiplierArrayNames: TTransientMultCollection;
      ZoneArrayNames: TTransientZoneCollection); override;
    procedure WriteStressPeriods(const VariableIdentifiers, DataSetIdentifier,
      DS5, D7PNameIname, D7PName: string); override;
    function ITMPUsed: Boolean; override;
  public
    // @name creates and instance of @classname.
    Constructor Create(Model: TCustomModel; EvaluationType: TEvaluationType); override;
    destructor Destroy; override;
    procedure WriteFile(const AFileName: string);
    procedure WriteString(const Value: AnsiString); overload; override;
    procedure WriteConstantU2DINT(const Comment: string;
      const Value: integer; ArrayType: TModflowArrayType;
      const MF6_ArrayName: string); override;
    procedure WriteConstantU2DREL(const Comment: string;
      const Value: double; ArrayType: TModflowArrayType;
      const MF6_ArrayName: string); override;
    procedure UpdateFarmIDDisplay(TimeLists: TModflowBoundListOfTimeLists);
    procedure UpdateRefEtDisplay(TimeLists: TModflowBoundListOfTimeLists);
    procedure UpdatePrecipDisplay(TimeLists: TModflowBoundListOfTimeLists);
    procedure UpdateCropIDDisplay(TimeLists: TModflowBoundListOfTimeLists);
    procedure UpdateEfficiencyDisplay(TimeLists: TModflowBoundListOfTimeLists);
    procedure UpdateEfficiencyImprovementDisplay(
      TimeLists: TModflowBoundListOfTimeLists);
    procedure UpdateBareRunoffFractionDisplay(
      TimeLists: TModflowBoundListOfTimeLists);
    procedure UpdateBarePrecipitationConsumptionFractionDisplay(
      TimeLists: TModflowBoundListOfTimeLists);
    procedure UpdateEvapBareDisplay(TimeLists: TModflowBoundListOfTimeLists);
    procedure UpdateDirectRechargeDisplay(TimeLists: TModflowBoundListOfTimeLists);
    procedure UpdatePrecipPotConsumptionDisplay(TimeLists: TModflowBoundListOfTimeLists);
    procedure UpdateNrdInfilLocationDisplay(TimeLists: TModflowBoundListOfTimeLists);
    procedure UpdateLandUseAreaFractionDisplay(TimeLists: TModflowBoundListOfTimeLists);
    procedure UpdateMultLandUseAreaFractionDisplay(TimeLists: TModflowBoundListOfTimeLists);
    procedure UpdateCropCoefficientDisplay(TimeLists: TModflowBoundListOfTimeLists);
    procedure UpdateMultCropCoefficientDisplay(TimeLists: TModflowBoundListOfTimeLists);
    procedure UpdateConsumptiveUseDisplay(TimeLists: TModflowBoundListOfTimeLists);
    procedure UpdateMultConsumptiveUseDisplay(TimeLists: TModflowBoundListOfTimeLists);
    procedure UpdateIrrigationDisplay(TimeLists: TModflowBoundListOfTimeLists);
    procedure UpdateMultIrrigationDisplay(TimeLists: TModflowBoundListOfTimeLists);
    procedure UpdateRootDepthDisplay(TimeLists: TModflowBoundListOfTimeLists);
    procedure UpdateMultRootDepthDisplay(TimeLists: TModflowBoundListOfTimeLists);
    procedure UpdateTranspirationFractionDisplay(TimeLists: TModflowBoundListOfTimeLists);
    procedure UpdateMultTranspirationFractionDisplay(TimeLists: TModflowBoundListOfTimeLists);
    procedure UpdateEvaporationIrrigationFractionDisplay(TimeLists: TModflowBoundListOfTimeLists);
    procedure UpdateMultEvaporationIrrigationFractionDisplay(TimeLists: TModflowBoundListOfTimeLists);
    procedure UpdateFractionOfPrecipToSurfaceWaterDisplay(TimeLists: TModflowBoundListOfTimeLists);
    procedure UpdateMultFractionOfPrecipToSurfaceWaterDisplay(TimeLists: TModflowBoundListOfTimeLists);
    procedure UpdateFractionOfIrrigToSurfaceWaterDisplay(TimeLists: TModflowBoundListOfTimeLists);
    procedure UpdateMultFractionOfIrrigToSurfaceWaterDisplay(TimeLists: TModflowBoundListOfTimeLists);
    procedure UpdateAddedDemandDisplay(TimeLists: TModflowBoundListOfTimeLists);
    procedure UpdateMultAddedDemandDisplay(TimeLists: TModflowBoundListOfTimeLists);
    procedure UpdateHasSalinityDemandDisplay(TimeLists: TModflowBoundListOfTimeLists);
    procedure UpdateMultHasSalinityDemandDisplay(TimeLists: TModflowBoundListOfTimeLists);
    procedure UpdateAddedDemandRunoffSplitDisplay(
      TimeLists: TModflowBoundListOfTimeLists);
  end;

implementation

uses
  frmErrorsAndWarningsUnit, ModflowFmpWriterUnit,
  ModflowUnitNumbers, frmProgressUnit,
  ModflowFmpFarmUnit, System.StrUtils,
  ModflowFmpIrrigationUnit,
  ModflowFmpAllotmentUnit, DataSetNamesUnit, ModflowMNW2_WriterUnit, FastGEO,
  ModflowParameterInterfaceUnit, frmFormulaErrorsUnit;

resourcestring
  StrUndefinedError = 'Undefined value in one or more stress periods';
  StrInvalidEfficiencyV = 'Invalid Efficiency value';
  StrInvalidEfficiencyI = 'Invalid Efficiency Improvement value';
  StrInvalidBareRunoff = 'Invalid Bare Runoff Fraction value';
  StrInvalidPrecipConsumpRunoff = 'Invalid Bare Precipitation Consumption Fraction value';
  StrInvalidCapillaryFringe = 'Invalid Capillary Fringe value';
  StrInvalidPotentialEv = 'Invalid Potential Evaporation Bare value';
  StrStressPeriodD = 'Stress Period %d';
  StrNonRoutedDeliverie = 'Non-Routed Deliveries enabled but not used';
  StrInTheMODFLOWPacka = 'In the MODFLOW Packages and Programs dialog box, i' +
  'n the Surface Water section of the Farm processs, non routed deliveries a' +
  're enabled but none have been defined in the Farms dialog box.';
  StrNonroutedDelivery = 'Non-routed delivery infiltration locations must be' +
  ' greater than or equal to 10.';
  StrLANDUSEPRINTROWC = 'LAND_USE PRINT ROW_COLUMN Issue';
  PrintRowColWarning1 = 'The "PRINT ROW_COLUMN" option in the LAND_USE block' +
  ' of the Farm Process has been selected but every cell has been selected i' +
  'n the %s data set. This is equivalent to "PRINT ALL" and "PRINT ALL" is a' +
  'lso selected so PRINT ROW_COLUMN is being skipped.';
  PrintRowColWarning2 = 'The "PRINT ROW_COLUMN" option in the LAND_USE block' +
  ' of the Farm Process has been selected but every cell has been selected i' +
  'n the %s data set. This is equivalent to "PRINT ALL" so "PRINT ALL" is be' +
  'ing used instead.';
  PrintRowColWarning3 = 'The PRINT ROW_COLUMN option in the LAND_USE block o' +
  'f the Farm Process has been selected but no cell has been selected in the' +
  ' %s data set so "PRINT ROW_COLUMN" is being skipped.';
  StrInvalidLandUseAre = 'Invalid land use area fraction formula in ';
  StrInvalidCropCoeffic = 'Invalid crop coefficient formula in ';
  StrInvalidConsumptive = 'Invalid consumptive use formula in ';
  StrInvalidRootDepthF = 'Invalid root depth formula in ';
  StrInvalidTranspiratio = 'Invalid transpiration fraction formula in ';
  StrInvalidSurfaceWate = 'Invalid surface water loss fraction precipitation' +
  ' formula in ';
  StrInvalidPondDepthF = 'Invalid pond depth formula in ';
  StrInvalidAddedDemand = 'Invalid added demand formula in ';
  StrInvalidZeroConsump = 'Invalid Zero consumptive use becomes bare soil fo' +
  'rmula in ';
  StrInvalidEvaporation = 'Invalid Evaporation Irrigation Fraction Sum One C' +
  'orrection formula in ';
  StrInvalidGroundwater = 'Invalid Groundwater Root Interaction value';
  StrInvalidDeficiencyS = 'Invalid Deficiency Scenario value';
  StrInvalidFractionOf = 'Invalid Fraction of Unconsumed Irrig. to Surface W' +
  'ater value';
  StrInvalidFractionOf2 = 'Invalid Fraction of Unconsumed Precip. to Surface ' +
  'Water value';
  StrInvalidAddedDemand2 = 'Invalid Added Demand Runoff Split value';
  StrInvalidTranspiratio2 = 'Invalid Transpiration Fraction value';
  StrInvalidGroundWaterAllotment = 'Invalid ground water allotment value';
  StrInvalidIrrigationU = 'Invalid Irrigation Uniformity';
  StrInvalidLandUseArea = 'Invalid Land Use Area Fraction value';
  StrInvalidPrecipitatio = 'Invalid Precipitation Potential Consumption valu' +
  'e';
  StrInvalidSurfaceWaterallotment = 'Invalid surface water allotment value';
  StrInvalidWaterSource = 'Invalid Water Source value';
  StrInvalidSaltSupply = 'Invalid salt supply concentration formula';
  StrInvalidSemirouted = 'Invalid semi-routed delivery value';
  StrInvalidSemirouted2 = 'Invalid semi-routed delivery lower limit value';
  StrInvalidSemiroutedUpper = 'Invalid semi-routed delivery upper limit valu' +
  'e';
  StrInvalidSemiroutedRet = 'Invalid semi-routed return value';
  StrInvalidAddedCropD = 'Invalid Added_Crop_Demand Flux value';
  StrInvalidAddedCropDRate = 'Invalid Added_Crop_Demand rate value';
  StrInvalidAddedDemandV = 'Invalid Added Demand value';
  StrInvalidConsumptiveUse = 'Invalid Consumptive Use value';
  StrInvalidCropCoefficV = 'Invalid Crop Coefficient value';
  StrInvalidNonroutedD = 'Invalid non-routed delivery value';
  StrInvalidNoReturnFl = 'Invalid no return flow value';
  StrInvalidIrrigationV = 'Invalid Irrigation value';
  StrInvalidRootDepthV = 'Invalid Root Depth value';
  StrInvalidRootPressur = 'Invalid Root Pressure value';
  StrInvalidSoilCoeffic = 'Invalid soil coefficient value';
  StrInvalidSoilIDValu = 'Invalid Soil ID value';
  StrInvalidSurfaceVert = 'Invalid Surface Vertical K value';
  StrStressPeriod = ' Stress period ';
  StrNoSoilsDefined = 'No soils defined';
  StrNoSoilsAreDefined = 'No soils are defined, so the FMP4 SOIL block is sk' +
  'ipped.';
  StrAtLeastOneSoilMu = 'At least one soil must be defined if land uses are ' +
  'used.';
  StrSoilCoefficientNot = 'Soil Coefficient not defined.';
  StrWhenTheRootPressu = 'When the Root pressure option is used in the Land ' +
  'Use section of the Farm Process, the Farm process requires that the soil ' +
  'coefficient be defined in the Soil section. You do that by first enabling' +
  ' the Soil Coefficient in the "Model|MODFLOW Packages and Programs" dialog ' +
  'box and then specifying a value in the "Model|Farm Process|Farm Soils" ' +
  'dialog box.';
  StrSoilTypeUndefined = 'Soil type undefined.';

{ TModflowFmp4Writer }

function TModflowFmp4Writer.CellType: TValueCellType;
begin
  result := TFmpWell_Cell;
end;

procedure TModflowFmp4Writer.CheckDataSetBetweenZeroAndFive(
  IntegerArray: TDataArray; const ErrorMessage: string);
var
  ColIndex: Integer;
  RowIndex: Integer;
begin
  Assert(IntegerArray <> nil);
  for RowIndex := 0 to Model.Grid.RowCount - 1 do
  begin
    for ColIndex := 0 to Model.Grid.ColumnCount - 1 do
    begin
      if FACtiveSurfaceCells[RowIndex, ColIndex] then
      begin
        if IntegerArray.IsValue[0, RowIndex, ColIndex] then
        begin
          if (IntegerArray.IntegerData[0, RowIndex, ColIndex] < 0)
            or (IntegerArray.IntegerData[0, RowIndex, ColIndex] > 5) then
          begin
            frmErrorsAndWarnings.AddError(Model, ErrorMessage,
              Format(StrRow0dColumn, [RowIndex + 1, ColIndex + 1]));
          end;
        end;
      end;
    end;
  end;
end;

procedure TModflowFmp4Writer.CheckDataSetBetweenZeroAndOne(
  RealArray: TDataArray; const ErrorMessage: string);
var
  ColIndex: Integer;
  RowIndex: Integer;
begin
  Assert(RealArray <> nil);
  for RowIndex := 0 to Model.Grid.RowCount - 1 do
  begin
    for ColIndex := 0 to Model.Grid.ColumnCount - 1 do
    begin
      if FACtiveSurfaceCells[RowIndex, ColIndex] then
      begin
        if RealArray.IsValue[0, RowIndex, ColIndex] then
        begin
          if RealArray.DataType = rdtInteger then
          begin
            if (RealArray.IntegerData[0, RowIndex, ColIndex] < 0)
              or (RealArray.IntegerData[0, RowIndex, ColIndex] > 1) then
            begin
              frmErrorsAndWarnings.AddError(Model, ErrorMessage,
                Format(StrRow0dColumn, [RowIndex + 1, ColIndex + 1]));
            end;
          end
          else
          begin
            if (RealArray.RealData[0, RowIndex, ColIndex] < 0)
              or (RealArray.RealData[0, RowIndex, ColIndex] > 1) then
            begin
              frmErrorsAndWarnings.AddError(Model, ErrorMessage,
                Format(StrRow0dColumn, [RowIndex + 1, ColIndex + 1]));
            end;
          end;
        end;
      end;
    end;
  end;
end;

procedure TModflowFmp4Writer.CheckDataSetZeroOrGETen(IntegerArray: TDataArray;
  const ErrorMessage: string);
var
  ColIndex: Integer;
  RowIndex: Integer;
  Value: Integer;
begin
  Assert(IntegerArray <> nil);
  for RowIndex := 0 to Model.Grid.RowCount - 1 do
  begin
    for ColIndex := 0 to Model.Grid.ColumnCount - 1 do
    begin
      if FACtiveSurfaceCells[RowIndex, ColIndex] then
      begin
        if IntegerArray.IsValue[0, RowIndex, ColIndex] then
        begin
          if IntegerArray.DataType = rdtInteger then
          begin
            Value := IntegerArray.IntegerData[0, RowIndex, ColIndex];
            if not ((Value = 0) or (Value >= 10)) then
            begin
              frmErrorsAndWarnings.AddError(Model, ErrorMessage,
                Format(StrRow0dColumn, [RowIndex + 1, ColIndex + 1]));
            end;
          end
          else
          begin
            Assert(False);
          end;
        end;
      end;
    end;
  end;
end;

procedure TModflowFmp4Writer.CheckDataSetZeroOrPositive(IntegerArray: TDataArray;
  const ErrorMessage: string);
var
  ColIndex: Integer;
  RowIndex: Integer;
begin
  Assert(IntegerArray <> nil);
  for RowIndex := 0 to Model.Grid.RowCount - 1 do
  begin
    for ColIndex := 0 to Model.Grid.ColumnCount - 1 do
    begin
      if FACtiveSurfaceCells[RowIndex, ColIndex] then
      begin