unit ModflowStrWriterUnit;

interface

uses System.UITypes,
  Winapi.Windows, Classes, Generics.Collections,CustomModflowWriterUnit,
  Forms, PhastModelUnit, ModflowBoundaryDisplayUnit,
  ModflowPackageSelectionUnit, SysUtils, ModflowCellUnit,
  ScreenObjectUnit, ModflowBoundaryUnit, OrderedCollectionUnit, GoPhastTypes,
  Contnrs, Generics.Defaults, ModflowTransientListParameterUnit,
  RbwParser, FluxObservationUnit, Vcl.Dialogs;

type
  TStrSegment = class(TObject)
  private
    // @name contains a series of @link(TValueCellList)s;
    // one for each stress period.
    // Each such list contains series of @link(TValueCell)s. Each
    // @link(TValueCell) defines one boundary cell for one stress period.
    // @name is a TObjectList.
    FReaches: TList;
    // @name contains a parameter names.  Associated with the
    // parameter name in the Objects property is a TList.  Each TList
    // contains a series of @link(TValueCellList)s; one for each stress period.
    // Each such list contains series of @link(TValueCell)s. Each
    // @link(TValueCell) defines one boundary cell for
    // one stress period.
    FParamValues: TStringList;
    FScreenObject: TScreenObject;
    FDownstreamSegments: TGenericIntegerList;
    FDiversionSegments: TGenericIntegerList;
    // @name is used when sorting segments.
    FHasTributariesTemp: boolean;
    FHasTributariesForThisStressPeriod: boolean;
    FParameterName: string;
    FParameterNumber: integer;
    // @name is the segment number exported to MODFLOW.
    FNewSegmentNumber: integer;
    // Each @link(TGenericIntegerList) in @name represents the tributaries for one
    // stress period.
    FTributaries: TListOfTIntegerList;
    // Each member of @name represents the diversion segment number for one
    // stress period.
    FDiversions: TGenericIntegerList;
    // Each member of @name represents the outflow segment number for one
    // stress period.
    FOutFlowSegments: TGenericIntegerList;
    procedure EvaluateLinks(Model: TBaseModel);
    function OriginalSegmentNumber: Integer;
    procedure AssignSegmentAndReachNumbers;
  public
    constructor Create;
    destructor Destroy; override;
    property ScreenObject: TScreenObject read FScreenObject;
  end;

  TStrSegmentComparer = class(TComparer<TStrSegment>)
    function Compare(const Left, Right: TStrSegment): Integer; override;
  end;

  TParameterSegments = class(TObject)
  private
    FParameterName: string;
    FUpStreamParameters: TStringList;
  public
    constructor Create;
    destructor Destroy; override;
  end;

  TStrWriter = class(TFluxObsWriter)
  private
    FSegments: TObjectList<TStrSegment>;
    // Each list in @name contains the segments for the corresponding
    // parameter in @link(FParameters);
    FParameterSegments: TObjectList<TList<TStrSegment>>;
    // @name contains a list of parameter instance names for each parameter.
    FParameterInstanceNames: TStringListObjectList;
//    FNameOfFile: string;
    FCalculateStage: Boolean;
    // @name is a list of @link(TModflowTransientListParameter) that are in
    // use in the STR package.  The corresponding segments are in
    // @link(FParameterSegments).
    FParameters: TList<TModflowTransientListParameter>;
    NTRIB: Integer;
    NDIV: Integer;
    NQST: Integer;
    NQCST: Integer;
    NQTST: Integer;
//    FPestParamUsed: Boolean;
    procedure SortSegments;
    function FindSegment(OriginalSegmentNumber: integer): TStrSegment;
    procedure AssociateParametersWithSegments;
    procedure EvaluateTributariesAndDiversions;
    // @name writes the number of parameters.
    procedure WriteDataSet1;
    procedure WriteDataSet2;
    procedure WriteDataSets3and4;
    procedure WriteDataSets5to10;
    procedure WriteDataSet5(StressPeriodIndex: Integer);
    procedure WriteDataSet6(StressPeriodIndex: Integer);
    procedure WriteDataSet7(StressPeriodIndex: Integer);
    procedure WriteDataSet8(StressPeriodIndex: Integer);
    procedure WriteDataSet9(StressPeriodIndex: Integer);
    procedure WriteDataSet10(StressPeriodIndex: Integer);
    function GetSegFromObject(AScreenObject: TScreenObject): TStrSegment;
    function FindSegmentWithNewSegmentNumber(
      NewSegmentNumber: integer): TStrSegment;
    procedure CheckReachSeparations;
    procedure CheckStreamTributaries;
    procedure CheckActiveReaches;
    procedure CheckReachProperties;
    function UseFixedFormat: Boolean;
    procedure WriteFileInternal;
  protected
    procedure Evaluate; override;
    function ObservationPackage: TModflowPackageSelection; override;
    function CellType: TValueCellType; override;
    class function ObservationExtension: string; override;
    function GetBoundary(ScreenObject: TScreenObject): TModflowBoundary;
      override;
    function ParameterType: TParameterType; override;
    procedure WriteCell(Cell: TValueCell;
      const DataSetIdentifier, VariableIdentifiers: string); override;
    procedure WriteParameterCells(CellList: TValueCellList; NLST: Integer;
      const VariableIdentifiers, DataSetIdentifier: string;
      AssignmentMethod: TUpdateMethod; MultiplierArrayNames: TTransientMultCollection;
      ZoneArrayNames: TTransientZoneCollection); override;
    function ObsNameWarningString: string; override;
    class function Extension: string; override;
    function Package: TModflowPackageSelection; override;
    procedure WriteObservationCell(ACell: TValueCell; DataSet5: TStringList;
      var Expression: TExpression; DataSets, Variables: TList;
      ObsFactor: TObservationFactor); override;
//    function ObsTypeMF6: string; override;
  public
    class function ComputeStreamConstant(Model: TCustomModel): double;
    Constructor Create(Model: TCustomModel; EvaluationType: TEvaluationType); override;
    destructor Destroy; override;
    procedure WriteFile(const AFileName: string);
    procedure UpdateDisplay(TimeLists: TModflowBoundListOfTimeLists);
    procedure WriteFluxObservationFile(const AFileName: string;
      Purpose: TObservationPurpose);
    class function ObservationOutputExtension: string; override;
  end;

resourcestring
  StrErrorInStreamPackLength = 'Error in Stream package: Length units for mo' +
  'del are undefined';
  StrErrorInStreamPackTime = 'Error in Stream package: Time units for model ' +
  'are undefined';

implementation

uses
  ModflowUnitNumbers, ModflowStrUnit, frmProgressUnit,
  frmErrorsAndWarningsUnit, GIS_Functions, ModflowTimeUnit, Math,
  frmModflowOutputControlUnit, ModflowOutputControlUnit, DataSetUnit;

resourcestring
  StrWritingSTRPackage = 'Writing STR Package input.';
  StrWritingDataSet0 = '  Writing Data Set 0.';
  StrEvaluatingSTRPacka = 'Evaluating STR Package data.';
  StrEvaluatingS = '    Evaluating %s';
  StrTheFollowingStream = 'The following Stream observation names may be valid' +
  ' for MODFLOW but they are not valid for UCODE.';
  StrTheFollowingStreamPest = 'The following Stream observation names may be valid' +
  ' for MODFLOW but they are not valid for PEST.';
  DupNumbersError = 'The STR segments defined by %0:s and %1:s have '
    + 'the same segment number: %2:d.';
  DupErrorCategory = 'Duplicate STR segment numbers';
  StrInvalidDownstreamS = 'Invalid downstream segment number in STR package.';
  StrTheSTRSegmentDefi = 'The STR segment defined by %0:s lists segment numb' +
  'er %1:d as a downstream segment but no such segment exists.';
  StrStreamsInTheSTRP = 'Streams in the STR package can not be downstream of' +
  ' themselves';
  StrTheSTRStreamSegem = 'The STR stream segment defined by %0:s specifies ' +
  'that the segment downstream of it has a segment number of %1:d. This is i' +
  't''s own segment number.';
  StrSegmentsInTheSTR = 'Segments in the STR package must only have downstre' +
  'am segments that have higher segment numbers.';
  StrTheSTRStreamSegme = 'The STR stream segment defined by %0:s lists %1:d ' +
  'as a downstream segment which is lower than its own segment number: %2:d.';
  StrInvalidDiversionSe = 'Invalid diversion segment number in STR package.';
  StrTheSTRSegmentDiversion = 'The STR segment defined by %0:s lists segment' +
  ' number %1:d as a diversion segment but no such segment exists.';
  StrStreamsInTheSTRPDiversion = 'Streams in the STR package can not divert ' +
  'water from themselves';
  StrTheSTRStreamSegmeDiversion = 'The STR stream segment defined by %0:s sp' +
  'ecifies that the segment from which it diverts water has a segment number' +
  ' of %1:d. This is it''s own segment number.';
  StrSegmentsInTheSTRDiversion = 'Segments in the STR package must only have' +
  ' diversion segments that have lower segment numbers.';
  StrTheSTRStreamSegmeDiver = 'The STR stream segment defined by %0:s lists ' +
  '%1:d as a downstream segment which is higher than its own segment number: ' +
  '%2:d.';
  CircularError = 'Object: %0:s; Segment Number: %1:d.';
  CircularCategory = 'The following STR segments circle back on themselves.';
  StrSTRParameterHasNo = 'STR parameter has no reaches defined.';
  StrNoReachesAreAssoc = 'No reaches are associated with the parameter "%s" ' +
  'in the Stream packages.';
  StrInvalidOutflowSegm = 'Invalid outflow segment number';
  StrTheOutflowSegment = 'The outflow segment (%0:d) specified by %1:s does ' +
  'not correspond to any segment';
  StrTheLengthUnitsFor = 'The length units for the model must be define in t' +
  'he MODFLOW Options dialog box for the stream constant to be calculated.';
  StrTheTimeUnitsForT = 'The time units for the model must be define in the ' +
  'MODFLOW Options dialog box for the stream constant to be calculated.';
  StrMultipliedByTheP = ' multiplied by the parameter value %0:g for paramet' +
  'er %1:s';
  StrFlowSetTo1Becau = 'Flow set to -1 because %s has tributaries.';
  StrInTheStreamSTR = 'In the Stream (STR) package, some reaches are separat' +
  'ed from previous reaches by more than one cell.';
  StrSegment0dReach = 'Segment: %0:d; Reach: %1:d; Stress Period: %2:d; Separation: %3:d';
  StrTributaryWarning = 'In the Stream (STR) package, there is a separation ' +
  'between a tributary segment and outflow segment of more than one cell.';
  StrTributarySegment0 = 'Tributary Segment %0:d, Outflow Segment %1:d; Stre' +
  'ss Period: %2:d, Separation %3:d cells';
  StrOneOrMoreReaches = 'One or more reaches in the stream package are in in' +
  'active cells.';
  StrInactiveReachCells = 'Stress period: %0:d; Segment: %1:d; Reach: %2:d; ' +
  'Layer: %3:d, Row: %4:d; Column: %5:d';
  StrOneOrMoreStreams = 'In one or more streams in STR package the FLOW is ' +
  'set to a negative number indicating that the stream has tributaries even ' +
  'though it doesn''t have tributaries. MODFLOW will treat such segments as ' +
  'having an inflow of zero.';
  StrInObject0sWith = 'Object %0:s with segment number %1:d.';
//  StrObject0sLayer = 'Object: %0:s; Layer: %1:d; Row: %2:d, Column: %3:d; St' +
//  'ress Period: %4:d';
  StrStageTopWarning = 'In the STR package, the stage is less than the st' +
  'ream bed top in one or more reaches.';
  StrStreamTopBottomWarning = 'In the STR package, the stream bed top is les' +
  's than the stream bed bottom in one or more reaches.';
  StrWidthWarning = 'In the STR package, the width is less than or equal to ' +
  'zero in one or more reaches.';
  StrSlopeWarning = 'In the STR package, the slope is less than or equal to ' +
  'zero in one or more reaches.';
  StrHighSlopeWarning = 'In the STR package, the slope is greater than or equal to than ' +
  '0.01 in one or more reaches.';
  StrRoughnessWarning = 'In the STR package, the roughness is less than or equal ' +
  'to than zero in one or more reaches.';
  StrDownhillFlowWarning = 'In the STR package, one or more reaches have a h' +
  'igher stage than in the reach upstream of them.';
  StrTribStageWarning = 'In the STR package, the last reach in some tributar' +
  'ies, have lower stages than the first reach of the segment into which the' +
  'y flow.';
  StrTributaryObject0 = 'Tributary Object: %0:s; Outflow Segment Object: %1:' +
  's; Difference: %2:g';
  StrDownhillObjectWarning = 'Object: %0:s; Reach: %1:d Layer: %2:d; Row: %3' +
  ':d, Column: %4:d; Stress Period: %5:d; Invalid value: %6:g';
  StrHighSTRStreamCond = 'High STR stream conductance compared to the cell-t' +
  'o-cell conductance may cause numerical difficulties';
  StrZeroSTRStreamCond = 'Transmissivity is negative or zero in cell containing a STR reach';
  StrTheFollowingObjectBadTribs = 'The following tributary objects define segments in ' +
  'the STR package that have no reaches.';
  StrInvalidSTRParamete = 'Invalid STR parameter name';
  StrAParameterNamed0 = 'A parameter named %0:s is used to define a stream i' +
  'n the STR package in the %1:s object but no such parameter has been defin' +
  'ed. This stream will be skipped.';
  StrInvalidSTRObservat = 'Invalid STR observation object';
  StrTheObject0sIsL = 'The object %0:s is listed as part of the %1:s observa' +
  'tion in the Stream Observation package but that object does not define a ' +
  'stream segment.';

const
  StrSegmentNumber = 'Segment Number in ';
  StrReachNumber = 'Reach Number in ';
  StrDownstreamSegmentNumber = 'Outflow Segment Number in ';
  StrDiversionSegmentNumber = 'Diversion Segment Number in ';

{ TStrWriter }

function TStrWriter.CellType: TValueCellType;
begin
  result := TStr_Cell;
end;

constructor TStrWriter.Create(Model: TCustomModel;
EvaluationType: TEvaluationType);
  begin
  inherited;
//  FValues := TList.Create;
  FSegments := TObjectList<TStrSegment>.Create;
  FParameterSegments := TObjectList<TList<TStrSegment>>.Create;

//  FParamValues := TStringList.Create;
//  FParamValues.OwnsObjects := True;
  OwnsValueContents := False;
  ParamValues.OwnsObjects := False;

  FParameters := TList<TModflowTransientListParameter>.Create;

  FParameterInstanceNames:= TStringListObjectList.Create;
end;

destructor TStrWriter.Destroy;
begin
  FParameterInstanceNames.Free;
  FParameters.Free;
  FParameterSegments.Free;
//  FParamValues.Free;
  FSegments.Free;
//  FValues.Free;
  inherited;
end;

procedure TStrWriter.Evaluate;
var
//  StartTime: Double;
//  EndTime: Double;
  ScreenObject: TScreenObject;
  ScreenObjectIndex: Integer;
  Boundary: TStrBoundary;
  NoAssignmentErrorRoot: string;
//  List: TList;
  NoDefinedErrorRoot: string;
  Segment: TStrSegment;
  StressPeriods: TModflowStressPeriods;
  StressPeriodIndex: Integer;
  SegmentIndex: Integer;
  ASegment: TStrSegment;
  OutflowSegmentNumber: Integer;
  DownstreamSegment: TStrSegment;
  Reaches: TValueCellList;
  StrCell: TStr_Cell;
  AList: TList;
//  ReachList: TList;
begin
  frmErrorsAndWarnings.BeginUpdate;
  try
    frmErrorsAndWarnings.RemoveErrorGroup(Model, DupErrorCategory);
    frmErrorsAndWarnings.RemoveErrorGroup(Model, StrInvalidDownstreamS);
    frmErrorsAndWarnings.RemoveErrorGroup(Model, StrStreamsInTheSTRP);
    frmErrorsAndWarnings.RemoveErrorGroup(Model, StrSegmentsInTheSTR);
    frmErrorsAndWarnings.RemoveErrorGroup(Model, StrInvalidDiversionSe);
    frmErrorsAndWarnings.RemoveErrorGroup(Model, StrStreamsInTheSTRPDiversion);
    frmErrorsAndWarnings.RemoveErrorGroup(Model, StrSegmentsInTheSTRDiversion);
    frmErrorsAndWarnings.RemoveErrorGroup(Model, CircularCategory);
    frmErrorsAndWarnings.RemoveErrorGroup(Model, StrTheFollowingObjectBadTribs);
    frmErrorsAndWarnings.RemoveErrorGroup(Model, StrInvalidSTRParamete);

    frmErrorsAndWarnings.RemoveWarningGroup(Model, StrSTRParameterHasNo);
    frmErrorsAndWarnings.RemoveErrorGroup(Model, StrInvalidOutflowSegm);
    frmErrorsAndWarnings.RemoveWarningGroup(Model, StrInTheStreamSTR);
    frmErrorsAndWarnings.RemoveWarningGroup(Model, StrTributaryWarning);
    frmErrorsAndWarnings.RemoveWarningGroup(Model, StrOneOrMoreReaches);
    frmErrorsAndWarnings.RemoveWarningGroup(Model, StrOneOrMoreStreams);

    frmErrorsAndWarnings.RemoveWarningGroup(Model, StrStageTopWarning);
    frmErrorsAndWarnings.RemoveWarningGroup(Model, StrStreamTopBottomWarning);
    frmErrorsAndWarnings.RemoveWarningGroup(Model, StrWidthWarning);
    frmErrorsAndWarnings.RemoveWarningGroup(Model, StrSlopeWarning);
    frmErrorsAndWarnings.RemoveWarningGroup(Model, StrHighSlopeWarning);
    frmErrorsAndWarnings.RemoveWarningGroup(Model, StrRoughnessWarning);
    frmErrorsAndWarnings.RemoveWarningGroup(Model, StrDownhillFlowWarning);
    frmErrorsAndWarnings.RemoveWarningGroup(Model, StrTribStageWarning);

    frmErrorsAndWarnings.RemoveWarningGroup(Model, StrHighSTRStreamCond);
    frmErrorsAndWarnings.RemoveWarningGroup(Model, StrZeroSTRStreamCond);



    if not Package.IsSelected then
    begin
      Exit
    end;
    if Model.PackageGeneratedExternally(StrSTR) then
    begin
      Exit;
    end;
    NoDefinedErrorRoot := Format(StrNoDefinedBoundarie, [Package.PackageIdentifier]);
    NoAssignmentErrorRoot := Format(StrNoBoundaryConditio, [Package.PackageIdentifier]);

    frmErrorsAndWarnings.RemoveErrorGroup(Model, NoAssignmentErrorRoot);
    frmErrorsAndWarnings.RemoveErrorGroup(Model, NoDefinedErrorRoot);

    frmProgressMM.AddMessage(StrEvaluatingSTRPacka);
    FCalculateStage := (Package as TStrPackageSelection).CalculateStage;

    for ScreenObjectIndex := 0 to Model.ScreenObjectCount - 1 do
    begin
      if not frmProgressMM.ShouldContinue then
      begin
        Exit;
      end;
      ScreenObject := Model.ScreenObjects[ScreenObjectIndex];
      if ScreenObject.Deleted then
      begin
        Continue;
      end;
      if not ScreenObject.UsedModels.UsesModel(Model) then
      begin
        Continue;
      end;
      Boundary := ScreenObject.ModflowStrBoundary;
      if (Boundary = nil) or not Boundary.Used then
      begin
        Continue;
      end;
      frmProgressMM.AddMessage(Format(StrEvaluatingS, [ScreenObject.Name]));
      if not ScreenObject.SetValuesOfEnclosedCells
        and not ScreenObject.SetValuesOfIntersectedCells then
      begin
        frmErrorsAndWarnings.AddError(Model, NoAssignmentErrorRoot,
          ScreenObject.Name, ScreenObject);
      end;
      frmProgressMM.AddMessage(Format(StrEvaluatingS,
        [ScreenObject.Name]));
      Boundary.FixItems;
      Boundary.GetCellValues(Values, FParamValues, Model);
      if Values.Count > 0 then
      begin
        Assert(FParamValues.Count = 0);
        Segment := TStrSegment.Create;
        FSegments.Add(Segment);
        Segment.FReaches.Assign(Values);
        Segment.FScreenObject := ScreenObject;
      end
      else if FParamValues.Count > 0 then
      begin
        Segment := TStrSegment.Create;
        FSegments.Add(Segment);
        Segment.FParamValues.Assign(FParamValues);
        Segment.FScreenObject := ScreenObject;
      end;
      Values.Clear;
      FParamValues.Clear;
    end;

    SortSegments;

    AssociateParametersWithSegments;
    EvaluateTributariesAndDiversions;

    StressPeriods := Model.ModflowFullStressPeriods;
    for StressPeriodIndex := 0 to StressPeriods.Count - 1 do
    begin
      for SegmentIndex := 0 to FSegments.Count - 1 do
      begin
        ASegment := FSegments[SegmentIndex];
        OutflowSegmentNumber := ASegment.FOutFlowSegments[StressPeriodIndex];
        if OutflowSegmentNumber <> 0 then
        begin
          DownstreamSegment := FindSegmentWithNewSegmentNumber(OutflowSegmentNumber);
          DownstreamSegment.FHasTributariesForThisStressPeriod := True;
        end;
      end;
      for SegmentIndex := 0 to FSegments.Count - 1 do
      begin
        ASegment := FSegments[SegmentIndex];
        if ASegment.FParamValues.Count > 0 then
        begin
          AList := ASegment.FParamValues.Objects[0] as TList;
          Reaches := AList[StressPeriodIndex];
        end
        else
        begin
          Reaches := ASegment.FReaches[StressPeriodIndex];
        end;
        if (Reaches.Count > 0) then
        begin
          StrCell := Reaches[0] as TStr_Cell;
          if ASegment.FHasTributariesForThisStressPeriod then
          begin
            StrCell.Flow := -1;
            StrCell.FlowAnnotation := Format(StrFlowSetTo1Becau,
              [ASegment.FScreenObject.Name]);
          end
          else if StrCell.Flow < 0 then
          begin
            frmErrorsAndWarnings.AddWarning(Model, StrOneOrMoreStreams,
              Format(StrInObject0sWith,
              [ASegment.FScreenObject.Name, ASegment.OriginalSegmentNumber]),
              ASegment.FScreenObject);
          end;
        end;
      end;
    end;

    CheckReachProperties;
    CheckReachSeparations;
    CheckStreamTributaries;
    CheckActiveReaches;


  finally
    frmErrorsAndWarnings.EndUpdate;
  end;
end;

class function TStrWriter.Extension: string;
begin
  result := '.str';
end;

function TStrWriter.GetBoundary(ScreenObject: TScreenObject): TModflowBoundary;
begin
  result := ScreenObject.ModflowStrBoundary;
end;

class function TStrWriter.ObservationExtension: string;
begin
  result := '.ob_stob';
end;

class function TStrWriter.ObservationOutputExtension: string;
begin
  result := '.stob_out';
end;

procedure TStrWriter.WriteFileInternal;
begin
  OpenFile(FNameOfFile);
  try
    WriteTemplateHeader;

    frmProgressMM.AddMessage(StrWritingSTRPackage);
    frmProgressMM.AddMessage(StrWritingDataSet0);
    WriteDataSet0;
    Application.ProcessMessages;
    if not frmProgressMM.ShouldContinue then
    begin
      Exit;
    end;

    WriteDataSet1;
    Application.ProcessMessages;
    if not frmProgressMM.ShouldContinue then
    begin
      Exit;
    end;

    WriteDataSet2;
    Application.ProcessMessages;
    if not frmProgressMM.ShouldContinue then
    begin
      Exit;
    end;

    WriteDataSets3and4;
    Application.ProcessMessages;
    if not frmProgressMM.ShouldContinue then
    begin
      Exit;
    end;

    WriteDataSets5to10;
    Application.ProcessMessages;
    if not frmProgressMM.ShouldContinue then
    begin
      Exit;
    end;
    //      Exit;
  finally
    CloseFile;
  end;
end;

function TStrWriter.ObservationPackage: TModflowPackageSelection;
begin
  result := Model.ModflowPackages.StobPackage;
end;

function TStrWriter.ObsNameWarningString: string;
begin
  if Model.PestUsed then
  begin
    result := StrTheFollowingStreamPest;
  end
  else
  begin
    result := StrTheFollowingStream;
  end;
end;

//function TStrWriter.ObsTypeMF6: string;
//begin
//  result := '';
//  Assert(False);
//end;

function TStrWriter.Package: TModflowPackageSelection;
begin
  result := Model.ModflowPackages.StrPackage;
end;

function TStrWriter.ParameterType: TParameterType;
begin
  result := ptSTR;
end;

function TStrWriter.FindSegment(OriginalSegmentNumber: integer): TStrSegment;
var
  Index: Integer;
  Segment: TStrSegment;
begin
  result := nil;
  for Index := 0 to FSegments.Count - 1 do
  begin
    Segment := FSegments[Index];
    if (Segment <> nil)
      and (Segment.OriginalSegmentNumber = OriginalSegmentNumber) then
    begin
      result := Segment;
      Exit;
    end;
  end;
end;

function TStrWriter.FindSegmentWithNewSegmentNumber(NewSegmentNumber: integer): TStrSegment;
var
  Index: Integer;
  Segment: TStrSegment;
begin
  result := nil;
  for Index := 0 to FSegments.Count - 1 do
  begin
    Segment := FSegments[Index];
    if (Segment <> nil)
      and (Segment.FNewSegmentNumber = NewSegmentNumber) then
    begin
      result := Segment;
      Exit;
    end;
  end;
end;

procedure TStrWriter.SortSegments;
var
  Comparer: TStrSegmentComparer;
  Error: string;
  Index: integer;
  Segment1: TStrSegment;
  Segment2: TStrSegment;
  Segment: TStrSegment;
  DownstreamIndex: Integer;
  SortedSegments: TObjectList<TStrSegment>;
  SegmentsFound: Boolean;
  OutIndex: integer;
  AnotherSegment: TStrSegment;
  OutOfOrder: Boolean;
  PSegments: TParameterSegments;
  PIndex: Integer;
  DownstreamParam: TParameterSegments;
  Changed: Boolean;
  SegIndex: Integer;
  SegmentNumbers: TGenericIntegerList;
  SegPostion: Integer;
  ParamIndex: Integer;
  AnotherPSegments: TParameterSegments;
  ParPosition: Integer;
  FirstSegment: TStrSegment;
  FParameterSegments: TStringList;
begin
  try
    FParameterSegments:= TStringList.Create;
    FParameterSegments.OwnsObjects := True;
    try
      // Create a TParameterSegments for each parameter that is in use.
      for Index := 0 to FSegments.Count - 1 do
      begin
        FSegments[Index].EvaluateLinks(Model);
        if FParameterSegments.IndexOf(FSegments[Index].FParameterName) < 0 then
        begin
          PSegments:= TParameterSegments.Create;
          PSegments.FParameterName := FSegments[Index].FParameterName;
          FParameterSegments.AddObject(PSegments.FParameterName, PSegments);
        end;
      end;

      if FParameterSegments.Count > 1 then
      begin
        // For each TParameterSegments find all TParameterSegments that are
        // tributaries of it.
        for Index := 0 to FSegments.Count - 1 do
        begin
          Segment := FSegments[Index];
          for OutIndex := 0 to Segment.FDownstreamSegments.Count - 1 do
          begin
            AnotherSegment := FindSegment(Segment.FDownstreamSegments[OutIndex]);
            if AnotherSegment <> nil then
            begin
              if AnotherSegment.FParameterName <> Segment.FParameterName then
              begin
                PIndex := FParameterSegments.IndexOf(AnotherSegment.FParameterName);
                Assert(PIndex >= 0);
                DownstreamParam := FParameterSegments.Objects[PIndex] as TParameterSegments;
                if DownstreamParam.FUpStreamParameters.IndexOf(Segment.FParameterName) < 0 then
                begin
                  DownstreamParam.FUpStreamParameters.Add(Segment.FParameterName);
                end;
              end;
            end;
          end;
        end;

        // For each TParameterSegments file all TParameterSegments from which it
        // diverts flow.
        for Index := 0 to FSegments.Count - 1 do
        begin
          Segment := FSegments[Index];
          for OutIndex := 0 to Segment.FDiversionSegments.Count - 1 do
          begin
            AnotherSegment := FindSegment(Segment.FDiversionSegments[OutIndex]);
            if AnotherSegment <> nil then
            begin
              if AnotherSegment.FParameterName <> Segment.FParameterName then
              begin
                PIndex := FParameterSegments.IndexOf(Segment.FParameterName);
                Assert(PIndex >= 0);
                DownstreamParam := FParameterSegments.Objects[PIndex] as TParameterSegments;
                if DownstreamParam.FUpStreamParameters.IndexOf(AnotherSegment.FParameterName) < 0 then
                begin
                  DownstreamParam.FUpStreamParameters.Add(AnotherSegment.FParameterName);
                end;
              end;
            end;
          end;
        end;

        // Assign FParameterNumber for each TStrSegment so that the segments
        // with the parameters that are furthest upstream  get the lowest numbers.
        PIndex := 0;
        repeat
          Changed := False;
          for Index := 0 to FParameterSegments.Count - 1 do
          begin
            PSegments := FParameterSegments.Objects[Index] as TParameterSegments;
            if PSegments.FUpStreamParameters.Count = 0 then
            begin
              for SegIndex := 0 to FSegments.Count - 1 do
              begin
                Segment := FSegments[SegIndex];
                if Segment.FParameterName = PSegments.FParameterName then
                begin
                  Segment.FParameterNumber := PIndex;
                end;
              end;
              Changed := True;

              for ParamIndex := 0 to FParameterSegments.Count - 1 do
              begin
                if ParamIndex <> Index then
                begin
                  AnotherPSegments := FParameterSegments.Objects[
                    ParamIndex] as TParameterSegments;
                  ParPosition := AnotherPSegments.FUpStreamParameters.IndexOf(
                    PSegments.FParameterName);
                  if ParPosition >= 0 then
                  begin
                    AnotherPSegments.FUpStreamParameters.Delete(ParPosition);
                  end;
                end;
              end;

              FParameterSegments.Delete(Index);
              Inc(PIndex);
              break;
            end;
          end;
          if not Changed and (FParameterSegments.Count > 0) then
          begin
            for Index := 0 to FParameterSegments.Count - 1 do
            begin
              PSegments := FParameterSegments.Objects[Index] as TParameterSegments;
              for SegIndex := 0 to FSegments.Count - 1 do
              begin
                Segment := FSegments[SegIndex];
                if Segment.FParameterName = PSegments.FParameterName then
                begin
                  Segment.FParameterNumber := PIndex;
                end;
              end;
              Inc(PIndex)
            end;
          end;
        until (not Changed) or (FParameterSegments.Count = 0);
      end;

    finally
      FParameterSegments.Free;
    end;

    // Sort by pararmeter number and then by original segment number.
    Comparer := TStrSegmentComparer.Create;
    try
      FSegments.Sort(Comparer);
    finally
      Comparer.Free;
    end;
    Error := '';

    // Check for duplicate original segment numbers.
    SegmentNumbers := TGenericIntegerList.Create;
    try
      for Index := 0 to FSegments.Count - 1 do
      begin
        Segment1 := FSegments[Index];
        SegPostion := SegmentNumbers.IndexOf(Segment1.OriginalSegmentNumber);
        if SegmentNumbers.IndexOf(Segment1.OriginalSegmentNumber) < 0 then
        begin
          SegmentNumbers.Add(SegPostion)
        end
        else
        begin
          Segment2 := FSegments[SegPostion];
          Error := Format(DupNumbersError, [Segment1.FScreenObject.Name,