unit ModflowWellUnit;

interface

uses Windows, ZLib, SysUtils, Classes, Contnrs, OrderedCollectionUnit,
  ModflowBoundaryUnit, ModflowCellUnit,
  FormulaManagerUnit, FormulaManagerInterfaceUnit,
  SubscriptionUnit, RbwParser, GoPhastTypes,
  ModflowTransientListParameterUnit, RealListUnit, System.Generics.Collections,
  Modflow6DynamicTimeSeriesInterfaceUnit, Modflow6TimeSeriesInterfaceUnit;

type
  {
    @name stores, the location, time and pumping rate for a well boundary.
  }
  TWellRecord = record
    Cell: TCellLocation;
    PumpingRate: double;
    StartingTime: double;
    EndingTime: double;
    PumpingRateAnnotation: string;
    PumpingRatePest: string;
    PumpingRatePestSeriesName: string;
    PumpingRatePestSeriesMethod: TPestParamMethod;
    MvrUsed: Boolean;
    MvrIndex: Integer;
    PumpingParameterName: string;
    PumpingParameterValue: double;
    PumpingRateTimeSeriesName: string;
    // GWT Concentrations
    GwtConcentrations: TGwtCellData;
    procedure Assign(const Item: TWellRecord);
    procedure Cache(Comp: TCompressionStream; Strings: TStringList);
    procedure Restore(Decomp: TDecompressionStream; Annotations: TStringList);
    procedure RecordStrings(Strings: TStringList);
  end;

  // @name is an array of @link(TWellRecord)s.
  TWellArray = array of TWellRecord;

  // @name extends @link(TCustomBoundaryStorage) by adding the locations
  // and values of series of wells.
  TWellStorage = class(TCustomBoundaryStorage)
  private
    FWellArray: TWellArray;
    function GetWellArray: TWellArray;
  protected
    procedure Restore(DecompressionStream: TDecompressionStream; Annotations: TStringList); override;
    procedure Store(Compressor: TCompressionStream); override;
    procedure Clear; override;
  public
    property WellArray: TWellArray read GetWellArray;
  end;

  TWellCollection = class;

  TWelGwtConcCollection = class(TGwtConcStringCollection)
    constructor Create(Model: TBaseModel; AScreenObject: TObject;
      ParentCollection: TWellCollection);
  end;

  // @name represents a MODFLOW well for one time interval.
  // @name is stored by @link(TWellCollection).
  TWellItem = class(TCustomModflowBoundaryItem)
  private
    // See @link(PumpingRate).
    FPumpingRate: IFormulaObject;
    FGwtConcentrations: TWelGwtConcCollection;
    // See @link(PumpingRate).
    procedure SetPumpingRate(const Value: string);
    function GetPumpingRate: string;
    procedure SetGwtConcentrations(const Value: TWelGwtConcCollection);
  protected
    procedure AssignObserverEvents(Collection: TCollection); override;
    procedure CreateFormulaObjects; override;
    procedure GetPropertyObserver(Sender: TObject; List: TList); override;
    procedure RemoveFormulaObjects; override;
    // See @link(BoundaryFormula).
    function GetBoundaryFormula(Index: integer): string; override;
    // See @link(BoundaryFormula).
    procedure SetBoundaryFormula(Index: integer; const Value: string); override;
    // @name checks whether AnotherItem is the same as the current @classname.
    function IsSame(AnotherItem: TOrderedItem): boolean; override;
    procedure InvalidateModel; override;
    function BoundaryFormulaCount: integer; override;
  public
    constructor Create(Collection: TCollection); override;
    Destructor Destroy; override;
    // @name copies Source to this @classname.
    procedure Assign(Source: TPersistent);override;
  published
    // @name is the formula used to set the pumping rate
    // or the pumping rate multiplier of this boundary.
    property PumpingRate: string read GetPumpingRate write SetPumpingRate;
    property GwtConcentrations: TWelGwtConcCollection read FGwtConcentrations
      write SetGwtConcentrations;
  end;

  TMfWelTimeListLink = class(TTimeListsModelLink)
  private
    // @name is used to compute the pumping rates for a series of
    // Wells over a series of time intervals.
    FPumpingRateData: TModflowTimeList;
    FConcList: TModflowTimeLists;
    procedure AddGwtTimeLists(SpeciesIndex: Integer);
    procedure RemoveGwtTimeLists(SpeciesIndex: Integer);
  protected
    procedure CreateTimeLists; override;
    procedure UpdateGwtTimeLists; override;
  public
    Destructor Destroy; override;
  end;

  // @name represents MODFLOW Well boundaries
  // for a series of time intervals.
  TWellCollection = class(TCustomMF_ListBoundColl)
  private
    procedure InvalidatePumpingRateData(Sender: TObject);
    procedure InvalidateGwtConcentrations(Sender: TObject);
  protected
    class function GetTimeListLinkClass: TTimeListsModelLinkClass; override;
    function AdjustedFormula(FormulaIndex, ItemIndex: integer): string; override;
    procedure AddSpecificBoundary(AModel: TBaseModel); override;

    // See @link(TCustomNonSpatialBoundColl.ItemClass
    // TCustomNonSpatialBoundColl.ItemClass)
    class function ItemClass: TBoundaryItemClass; override;
    // @name calls inherited @name and then sets the length of
    // the @link(TWellStorage.WellArray) at ItemIndex in
    // @link(TCustomMF_BoundColl.Boundaries) to BoundaryCount.
    // @SeeAlso(TCustomMF_BoundColl.SetBoundaryStartAndEndTime
    // TCustomMF_BoundColl.SetBoundaryStartAndEndTime)
    procedure SetBoundaryStartAndEndTime(BoundaryCount: Integer;
      Item: TCustomModflowBoundaryItem; ItemIndex: Integer; AModel: TBaseModel); override;
    procedure InvalidateModel; override;
    procedure AssignListCellLocation(BoundaryStorage: TCustomBoundaryStorage;
      ACellList: TObject); override;
    procedure AssignCellList(CellAssignmentData: TCellAssignmentData); override;
  end;

  // Each @name stores a @link(TWellCollection).
  // @classname is stored by @link(TModflowParameters).
  TWellParamItem = class(TModflowParamItem)
  protected
    class function BoundaryClass: TMF_BoundCollClass; override;
  end;

  TWell_Cell = class(TValueCell)
  private
    FValues: TWellRecord;
    StressPeriod: integer;
    function GetPumpingRate: double;
    function GetPumpingRateAnnotation: string;
    function GetMvrUsed: Boolean;
    function GetMvrIndex: Integer;
    function GetPumpingParameterName: string;
    function GetPumpingParameterValue: double;
    function GetPumpingRatePest: string;
    function GetPumpingRatePestSeriesMethod: TPestParamMethod;
    function GetPumpingRatePestSeriesName: string;
    function GetPumpingRateTimeSeriesName: string;
    procedure SetPumpingRateTimeSeriesName(const Value: string);
    function GetGwtConcentrations: TGwtCellData;
  protected
    property Values: TWellRecord read FValues;
    function GetColumn: integer; override;
    function GetLayer: integer; override;
    function GetRow: integer; override;
    procedure SetColumn(const Value: integer); override;
    procedure SetLayer(const Value: integer); override;
    procedure SetRow(const Value: integer); override;
    function GetIntegerValue(Index: integer; AModel: TBaseModel): integer; override;
    function GetRealValue(Index: integer; AModel: TBaseModel): double; override;
    function GetRealAnnotation(Index: integer; AModel: TBaseModel): string; override;
    function GetIntegerAnnotation(Index: integer; AModel: TBaseModel): string; override;
    procedure Cache(Comp: TCompressionStream; Strings: TStringList); override;
    procedure Restore(Decomp: TDecompressionStream; Annotations: TStringList); override;
    function GetSection: integer; override;
    procedure RecordStrings(Strings: TStringList); override;
    function GetPestName(Index: Integer): string; override;
    function GetPestSeriesMethod(Index: Integer): TPestParamMethod; override;
    function GetPestSeriesName(Index: Integer): string; override;
    function GetMf6TimeSeriesName(Index: Integer): string; override;
    procedure SetMf6TimeSeriesName(Index: Integer; const Value: string); override;
  public
    property PumpingRate: double read GetPumpingRate;
    property PumpingRateAnnotation: string read GetPumpingRateAnnotation;
    property MvrUsed: Boolean read GetMvrUsed;
    property MvrIndex: Integer read GetMvrIndex;
    function IsIdentical(AnotherCell: TValueCell): boolean; override;
    property PumpingParameterName: string read GetPumpingParameterName;
    property PumpingParameterValue: double read GetPumpingParameterValue;
    // PEST parameters
    property PumpingRatePest: string read GetPumpingRatePest;
    property PumpingRatePestSeries: string read GetPumpingRatePestSeriesName;
    property PumpingRatePestSeriesMethod: TPestParamMethod
      read GetPumpingRatePestSeriesMethod;
    // Time Series
    property PumpingRateTimeSeriesName: string read GetPumpingRateTimeSeriesName
      write SetPumpingRateTimeSeriesName;
    // GWT
    property GwtConcentrations: TGwtCellData read GetGwtConcentrations;
  end;

  // @name represents the MODFLOW Well boundaries associated with
  // a single @link(TScreenObject).
  //
  // FormulaInterpretation determines whether the @Link(TWellItem.PumpingRate
  // TWellItem.PumpingRate) formulas represent
  // @unorderedlist(
  //   @item(fiSpecific - Pumping Rate / the length or area of
  //     intersection between the @link(TScreenObject) and grid cell.)
  //   @item(fiTotal - Pumping Rate.)
  // )
  // @seealso(TWellCollection)
  TMfWellBoundary = class(TSpecificModflowBoundary)
  private
    FMaxTabCells: Integer;
    FTabFileName: string;
    FRelativeTabFileName: string;
    FTabFileLines: Integer;
    FPestPumpingRateMethod: TPestParamMethod;
    FPestPumpingRateFormula: IFormulaObject;
    FPestPumpingRateObserver: TObserver;
    FUsedObserver: TObserver;
    FPestConcentrationFormulas: TWelGwtConcCollection;
    FPestConcentrationMethods: TGwtPestMethodCollection;
    FConcentrationObservers: TObserverList;
    procedure SetTabFileName(const Value: string);
    function GetRelativeTabFileName: string;
    procedure SetRelativeTabFileName(const Value: string);
    procedure SetTabFileLines(const Value: Integer);
    function GetPestPumpingRateFormula: string;
    procedure SetPestPumpingRateFormula(const Value: string);
    procedure SetPestPumpingRateMethod(const Value: TPestParamMethod);
    function GetPestPumpingRateObserver: TObserver;
    procedure InvalidatePumpingRateData(Sender: TObject);
    procedure InvalidateConcData(Sender: TObject);
    procedure SetPestConcentrationFormulas(const Value: TWelGwtConcCollection);
    procedure SetPestConcentrationMethods(const Value: TGwtPestMethodCollection);
    function GetConcentrationObserver(const Index: Integer): TObserver;
  protected
    // @name fills ValueTimeList with a series of TObjectLists - one for
    // each stress period.  Each such TObjectList is filled with
    // @link(TWell_Cell)s for that stress period.
    procedure AssignCells(BoundaryStorage: TCustomBoundaryStorage;
      ValueTimeList: TList; AModel: TBaseModel); override;
    // See @link(TModflowBoundary.BoundaryCollectionClass
    // TModflowBoundary.BoundaryCollectionClass).
    class function BoundaryCollectionClass: TMF_BoundCollClass; override;
    // See @link(TModflowParamBoundary.ModflowParamItemClass
    // TModflowParamBoundary.ModflowParamItemClass).
    class function ModflowParamItemClass: TModflowParamItemClass; override;
    function ParameterType: TParameterType; override;

    procedure HandleChangedValue(Observer: TObserver); //override;
    function GetUsedObserver: TObserver; //override;
    procedure GetPropertyObserver(Sender: TObject; List: TList); override;
    procedure CreateFormulaObjects; //override;
    function BoundaryObserverPrefix: string; override;
    procedure CreateObservers; //override;
    property PestPumpingRateObserver: TObserver
      read GetPestPumpingRateObserver;
    property ConcentrationObserver[const Index: Integer]: TObserver
      read GetConcentrationObserver;
    function GetPestBoundaryFormula(FormulaIndex: integer): string; override;
    procedure SetPestBoundaryFormula(FormulaIndex: integer;
      const Value: string); override;
    function GetPestBoundaryMethod(FormulaIndex: integer): TPestParamMethod; override;
    procedure SetPestBoundaryMethod(FormulaIndex: integer;
      const Value: TPestParamMethod); override;
  public
    Constructor Create(Model: TBaseModel; ScreenObject: TObject);
    destructor Destroy; override;
    procedure Assign(Source: TPersistent);override;
    property MaxTabCells: Integer read FMaxTabCells;
    // @name fills ValueTimeList via a call to AssignCells for each
    // link  @link(TWellStorage) in
    // @link(TCustomMF_BoundColl.Boundaries Values.Boundaries);
    // Those represent non-parameter boundary conditions.
    // @name fills ParamList with the names of the
    // MODFLOW Well parameters that are in use.
    // The Objects property of ParamList has TObjectLists
    // Each such TObjectList is filled via a call to AssignCells
    // with each @link(TWellStorage) in @link(TCustomMF_BoundColl.Boundaries
    // Param.Param.Boundaries)
    // Those represent parameter boundary conditions.
    procedure GetCellValues(ValueTimeList: TList; ParamList: TStringList;
      AModel: TBaseModel; Writer: TObject); override;
    procedure InvalidateDisplay; override;
    procedure UpdateTimes(Times: TRealList; StartTestTime, EndTestTime: double;
      var StartRangeExtended, EndRangeExtended: boolean; AModel: TBaseModel); override;
    property TabFileName: string read FTabFileName write SetTabFileName;
    property TabFileLines: Integer read FTabFileLines write SetTabFileLines;
    class function DefaultBoundaryMethod(
      FormulaIndex: integer): TPestParamMethod; override;
  published
    property RelativeTabFileName: string read GetRelativeTabFileName
      write SetRelativeTabFileName;
    property Interp;
    property PestPumpingRateFormula: string read GetPestPumpingRateFormula
      write SetPestPumpingRateFormula;
    property PestPumpingRateMethod: TPestParamMethod read FPestPumpingRateMethod
      write SetPestPumpingRateMethod;
    property PestConcentrationFormulas: TWelGwtConcCollection
      read FPestConcentrationFormulas write SetPestConcentrationFormulas;
    property PestConcentrationMethods: TGwtPestMethodCollection
      read FPestConcentrationMethods write SetPestConcentrationMethods;
  end;

resourcestring
  StrWellFormulaError = 'Pumping rate set to zero because of a math error';
  StrWellConcentrationS = 'Well Concentration set to zero because of a math ' +
  'error';

const
  WelPumpingRatePosition = 0;
  WelStartConcentration = 1;

implementation

uses ScreenObjectUnit, ModflowTimeUnit, PhastModelUnit,
  frmGoPhastUnit, GIS_Functions, frmErrorsAndWarningsUnit,
  ModflowMvrUnit;

resourcestring
  StrPumpingRateMultip = ' pumping rate multiplier';
  StrWellPumpingRate = 'Well pumping rate';

{ TWellItem }

procedure TWellItem.Assign(Source: TPersistent);
var
  WellSource: TWellItem;
begin
  // if Assign is updated, update IsSame too.
  if Source is TWellItem then
  begin
    WellSource := TWellItem(Source);
    PumpingRate := WellSource.PumpingRate;
    GwtConcentrations := WellSource.GwtConcentrations;
  end;
  inherited;
end;

procedure TWellItem.AssignObserverEvents(Collection: TCollection);
var
  ParentCollection: TWellCollection;
  PumpingRateObserver: TObserver;
  ConcIndex: Integer;
begin
  ParentCollection := Collection as TWellCollection;
  PumpingRateObserver := FObserverList[WelPumpingRatePosition];
  PumpingRateObserver.OnUpToDateSet := ParentCollection.InvalidatePumpingRateData;

  for ConcIndex := 0 to GwtConcentrations.Count - 1 do
  begin
    GwtConcentrations[ConcIndex].Observer.OnUpToDateSet
      := ParentCollection.InvalidateGwtConcentrations;
  end;
end;

function TWellItem.BoundaryFormulaCount: integer;
begin
  result := 1;
  if GwtConcentrations <> nil then
  begin
    if (Model <> nil) and Model.GwtUsed then
    begin
      GwtConcentrations.Count := (Model as TCustomModel).MobileComponents.Count;
    end;
    if frmGoPhast.PhastModel.GwtUsed then
    begin
      result := result + GwtConcentrations.Count;
    end;
  end;
end;

constructor TWellItem.Create(Collection: TCollection);
var
  WelCol: TWellCollection;
begin
  WelCol := Collection as TWellCollection;
  FGwtConcentrations := TWelGwtConcCollection.Create(Model as TCustomModel, ScreenObject,
    WelCol);
  inherited;
end;

procedure TWellItem.CreateFormulaObjects;
begin
  FPumpingRate := CreateFormulaObject(dso3D);
end;

destructor TWellItem.Destroy;
var
  Index: Integer;
begin
  PumpingRate := '0';
  for Index := 0 to FGwtConcentrations.Count - 1 do
  begin
    FGwtConcentrations[Index].Value := '0';
  end;
  FGwtConcentrations.Free;
  inherited;
end;

function TWellItem.GetBoundaryFormula(Index: integer): string;
var
  Item: TGwtConcStringValueItem;
begin
  case Index of
    WelPumpingRatePosition: result := PumpingRate;
    else
      begin
        Dec(Index, 1);
        while GwtConcentrations.Count <= Index do
        begin
          GwtConcentrations.Add;
        end;
        Item := GwtConcentrations[Index];
        result := Item.Value;
      end;
  end;
end;

procedure TWellItem.GetPropertyObserver(Sender: TObject; List: TList);
var
  Item: TGwtConcStringValueItem;
  ConcIndex: Integer;
begin
  if (Sender = FPumpingRate as TObject) then
  begin
    List.Add(FObserverList[WelPumpingRatePosition]);
  end;
  for ConcIndex := 0 to GwtConcentrations.Count - 1 do
  begin
    Item := GwtConcentrations.Items[ConcIndex];
    if Item.ValueObject as TObject = Sender then
    begin
      List.Add(Item.Observer);
    end;
  end;
end;

function TWellItem.GetPumpingRate: string;
begin
  Result := FPumpingRate.Formula;
  ResetItemObserver(WelPumpingRatePosition);
end;

procedure TWellItem.InvalidateModel;
var
  PhastModel: TPhastModel;
begin
  inherited;
  PhastModel := Model as TPhastModel;
  if (PhastModel <> nil)
    and not (csDestroying in PhastModel.ComponentState)
    and not PhastModel.Clearing then
  begin
    PhastModel.InvalidateMfWellPumpage(self);
    PhastModel.InvalidateMfWellConc(self);
  end;
end;

function TWellItem.IsSame(AnotherItem: TOrderedItem): boolean;
var
  Item: TWellItem;
begin
  result := (AnotherItem is TWellItem) and inherited IsSame(AnotherItem);
  if result then
  begin
    Item := TWellItem(AnotherItem);
    result := (Item.PumpingRate = PumpingRate)
      and (Item.GwtConcentrations.IsSame(GwtConcentrations));
  end;
end;

procedure TWellItem.RemoveFormulaObjects;
begin
  frmGoPhast.PhastModel.FormulaManager.Remove(FPumpingRate,
    GlobalRemoveModflowBoundaryItemSubscription,
    GlobalRestoreModflowBoundaryItemSubscription, self);
end;

procedure TWellItem.SetBoundaryFormula(Index: integer; const Value: string);
var
  Item: TGwtConcStringValueItem;
begin
  inherited;
  case Index of
    WelPumpingRatePosition: PumpingRate := Value;
    else
      begin
        Dec(Index, 1);
        while Index >= GwtConcentrations.Count do
        begin
          GwtConcentrations.Add;
        end;
        Item := GwtConcentrations[Index];
        Item.Value := Value;
      end;
  end;
end;

procedure TWellItem.SetGwtConcentrations(const Value: TWelGwtConcCollection);
begin
  FGwtConcentrations.Assign(Value);
end;

procedure TWellItem.SetPumpingRate(const Value: string);
begin
  UpdateFormulaBlocks(Value, WelPumpingRatePosition, FPumpingRate);
end;

{ TWellCollection }

procedure TWellCollection.AddSpecificBoundary(AModel: TBaseModel);
begin
  AddBoundary(TWellStorage.Create(AModel));
end;

procedure TWellCollection.AssignCellList(CellAssignmentData: TCellAssignmentData);
var
  WellStorage: TWellStorage;
  CellList: TCellAssignmentList;
  Index: Integer;
  ACell: TCellAssignment;
  LocalScreenObject: TScreenObject;
  ConcIndex: Integer;
  AllowedIndicies: Set of Byte;
  SpeciesIndex: Byte;
  LocalModel: TCustomModel;
  ErrorMessage: string;
  Expression: TExpression;
  ACellList: TObject;
  BoundaryStorage: TCustomBoundaryStorage;
  BoundaryFunctionIndex: integer;
  Variables, DataSets: TList;
  AModel: TBaseModel;
  AScreenObject: TObject;
  PestName: string;
  PestSeriesName: string;
  PestSeriesMethod: TPestParamMethod;
  TimeSeriesName: string;
  DynamicTimeSeries: IDynamicTimeSeries;
  Location: TTimeSeriesLocation;
  TimeSeries: IMf6TimeSeries;
begin
  Expression := CellAssignmentData.Expression;
  ACellList := CellAssignmentData.ACellList;
  BoundaryStorage := CellAssignmentData.BoundaryStorage;
  BoundaryFunctionIndex := CellAssignmentData.BoundaryFunctionIndex;
  Variables := CellAssignmentData.Variables;
  DataSets := CellAssignmentData.DataSets;
  AModel := CellAssignmentData.AModel;
  AScreenObject := CellAssignmentData.AScreenObject;
  PestName := CellAssignmentData.PestName;
  PestSeriesName := CellAssignmentData.PestSeriesName;
  PestSeriesMethod := CellAssignmentData.PestSeriesMethod;
  TimeSeriesName := CellAssignmentData.TimeSeriesName;
  DynamicTimeSeries := CellAssignmentData.DynamicTimeSeries;

  BoundaryGroup.Mf6TimeSeriesNames.Add(TimeSeriesName);
  AllowedIndicies := [0];
  LocalModel := AModel as TCustomModel;
  if LocalModel.GwtUsed then
  begin
    for SpeciesIndex := 0 to LocalModel.MobileComponents.Count - 1 do
    begin
      Include(AllowedIndicies, WelStartConcentration + SpeciesIndex);
    end;
  end;

  Assert(BoundaryFunctionIndex in AllowedIndicies);
  Assert(Expression <> nil);

  WellStorage := BoundaryStorage as TWellStorage;
  CellList := ACellList as TCellAssignmentList;
  for Index := 0 to CellList.Count - 1 do
  begin
    ACell := CellList[Index];

    UpdateCurrentScreenObject(AScreenObject as TScreenObject);
    UpdateRequiredListData(DataSets, Variables, ACell, AModel);
    // Handle dynamic time series here.

    if DynamicTimeSeries <> nil then
    begin
      Location.Layer := ACell.Layer;
      Location.Row := ACell.Row;
      Location.Column := ACell.Column;
      TimeSeries := DynamicTimeSeries.StaticTimeSeries[Location];
      BoundaryGroup.Mf6TimeSeriesNames.Add(TimeSeries.SeriesName);
      TimeSeriesName := TimeSeries.SeriesName;
    end;

    // 2. update locations
    try
      Expression.Evaluate;
      case BoundaryFunctionIndex of
        WelPumpingRatePosition:
          begin
            with WellStorage.WellArray[Index] do
            begin
              PumpingRate := Expression.DoubleResult;
              PumpingRateAnnotation := ACell.Annotation;
              PumpingRatePest := PestName;
              PumpingRatePestSeriesName := PestSeriesName;
              PumpingRatePestSeriesMethod := PestSeriesMethod;
              PumpingRateTimeSeriesName := TimeSeriesName;
            end;
          end;
        else
          begin
            ConcIndex := BoundaryFunctionIndex - WelStartConcentration;
            with WellStorage.WellArray[Index] do
            begin
              GwtConcentrations.Values[ConcIndex] := Expression.DoubleResult;
              GwtConcentrations.ValueAnnotations[ConcIndex] := ACell.Annotation;
              GwtConcentrations.ValuePestNames[ConcIndex] := PestName;
              GwtConcentrations.ValuePestSeriesNames[ConcIndex] := PestSeriesName;
              GwtConcentrations.ValuePestSeriesMethods[ConcIndex] := PestSeriesMethod;
              GwtConcentrations.ValueTimeSeriesNames[ConcIndex] := TimeSeriesName;
            end;
          end;
      end;
    except
      on E: EMathError do
      begin
        case BoundaryFunctionIndex of
          WelPumpingRatePosition:
            begin
              with WellStorage.WellArray[Index] do
              begin
                ErrorMessage := StrWellFormulaError;
                PumpingRate := 0;
                PumpingRateAnnotation := ErrorMessage;
                PumpingRatePest := PestName;
                PumpingRatePestSeriesName := PestSeriesName;
                PumpingRatePestSeriesMethod := PestSeriesMethod;
                PumpingRateTimeSeriesName := TimeSeriesName;
              end;
            end;
          else
            begin
              ConcIndex := BoundaryFunctionIndex - WelStartConcentration;
              with WellStorage.WellArray[Index] do
              begin
                GwtConcentrations.Values[ConcIndex] := 0;
                GwtConcentrations.ValueAnnotations[ConcIndex] := StrWellConcentrationS;
                GwtConcentrations.ValuePestNames[ConcIndex] := PestName;
                GwtConcentrations.ValuePestSeriesNames[ConcIndex] := PestSeriesName;
                GwtConcentrations.ValuePestSeriesMethods[ConcIndex] := PestSeriesMethod;
                GwtConcentrations.ValueTimeSeriesNames[ConcIndex] := TimeSeriesName;
              end;
            end;
        end;
        LocalScreenObject := ScreenObject as TScreenObject;

        frmErrorsAndWarnings.AddError(AModel, ErrorMessage,
          Format(StrObject0sLayerError,
          [LocalScreenObject.Name, ACell.Layer+1, ACell.Row+1,
          ACell.Column+1, E.Message]), LocalScreenObject);
      end;
      on E: ERbwParserError do
      begin
        case BoundaryFunctionIndex of
          WelPumpingRatePosition:
            begin
              with WellStorage.WellArray[Index] do
              begin
                ErrorMessage := StrWellFormulaError;
                PumpingRate := 0;
                PumpingRateAnnotation := ErrorMessage;
                PumpingRatePest := PestName;
                PumpingRatePestSeriesName := PestSeriesName;
                PumpingRatePestSeriesMethod := PestSeriesMethod;
                PumpingRateTimeSeriesName := TimeSeriesName;
              end;
            end;
          else
            begin
              ConcIndex := BoundaryFunctionIndex - WelStartConcentration;
              with WellStorage.WellArray[Index] do
              begin
                GwtConcentrations.Values[ConcIndex] := 0;
                GwtConcentrations.ValueAnnotations[ConcIndex] := StrWellConcentrationS;
                GwtConcentrations.ValuePestNames[ConcIndex] := PestName;
                GwtConcentrations.ValuePestSeriesNames[ConcIndex] := PestSeriesName;
                GwtConcentrations.ValuePestSeriesMethods[ConcIndex] := PestSeriesMethod;
                GwtConcentrations.ValueTimeSeriesNames[ConcIndex] := TimeSeriesName;
              end;
            end;
        end;
        LocalScreenObject := ScreenObject as TScreenObject;

        frmErrorsAndWarnings.AddError(AModel, ErrorMessage,
          Format(StrObject0sLayerError,
          [LocalScreenObject.Name, ACell.Layer+1, ACell.Row+1,
          ACell.Column+1, E.Message]), LocalScreenObject);
      end;
    end;
  end;
end;

procedure TWellCollection.AssignListCellLocation(
  BoundaryStorage: TCustomBoundaryStorage; ACellList: TObject);
var
  WellStorage: TWellStorage;
  CellList: TCellAssignmentList;
  Index: Integer;
  ACell: TCellAssignment;
begin
  WellStorage := BoundaryStorage as TWellStorage;
  CellList := ACellList as TCellAssignmentList;
  for Index := 0 to CellList.Count - 1 do
  begin
    ACell := CellList[Index];
    if ACell.LgrEdge then
    begin
      Continue;
    end;
    with WellStorage.WellArray[Index] do
    begin
      Cell.Layer := ACell.Layer;
      Cell.Row := ACell.Row;
      Cell.Column := ACell.Column;
      Cell.Section := ACell.Section;
    end;
  end;
end;

class function TWellCollection.GetTimeListLinkClass: TTimeListsModelLinkClass;
begin
  result := TMfWelTimeListLink;
end;

function TWellCollection.AdjustedFormula(FormulaIndex, ItemIndex: integer): string;
var
  Boundary: TMfWellBoundary;
  Item: TWellItem;
  ScreenObject: TScreenObject;
begin
  result := '';
  Item := Items[ItemIndex] as TWellItem;
  if FormulaIndex = 0 then
  begin
    Boundary := BoundaryGroup as TMfWellBoundary;
    ScreenObject := Boundary.ScreenObject as TScreenObject;
    case Boundary.FormulaInterpretation of
      fiSpecific:
        begin
          if ScreenObject.ScreenObjectLength = 0 then
          begin
            result := Item.PumpingRate;
          end
          else if ScreenObject.Closed then
          begin
            result := '(' + Item.PumpingRate
              + ') * ' + StrObjectIntersectArea;
          end
          else
          begin
            result := '(' + Item.PumpingRate
              + ') * ' + StrObjectSectionIntersectLength;
          end;
        end;
      fiDirect:
        begin
          result := Item.PumpingRate;
        end;
      fiTotal:
        begin
          if ScreenObject.ScreenObjectLength = 0 then
          begin
            result := Item.PumpingRate;
          end
          else if ScreenObject.Closed then
          begin
            result := '((' + Item.PumpingRate
              + ') * ' + StrObjectIntersectArea + ') / ' + StrObjectArea;
          end
          else
          begin
            result := '((' + Item.PumpingRate
              + ') * ' + StrObjectSectionIntersectLength+ ') / ' + StrObjectLength;
          end;
        end;
      else Assert(False);
    end;
  end
  else
  begin
    result := Item.BoundaryFormula[FormulaIndex];
  end;
end;

procedure TWellCollection.InvalidateGwtConcentrations(Sender: TObject);
var
  Index: Integer;
  TimeList: TModflowTimeList;
  PhastModel: TPhastModel;
  Link: TMfWelTimeListLink;
  ChildIndex: Integer;
  ChildModel: TChildModel;
begin
  if not (Sender as TObserver).UpToDate then
  begin
    PhastModel := frmGoPhast.PhastModel;
    if PhastModel.Clearing then
    begin
      Exit;
    end;
    Link := TimeListLink.GetLink(PhastModel) as TMfWelTimeListLink;
    for Index := 0 to Link.FConcList.Count - 1 do
    begin
      TimeList := Link.FConcList[Index];
      TimeList.Invalidate;
    end;
    for ChildIndex := 0 to PhastModel.ChildModels.Count - 1 do
    begin
      ChildModel := PhastModel.ChildModels[ChildIndex].ChildModel;
      if ChildModel <> nil then
      begin
        Link := TimeListLink.GetLink(ChildModel) as TMfWelTimeListLink;
        for Index := 0 to Link.FConcList.Count - 1 do
        begin
          TimeList := Link.FConcList[Index];
          TimeList.Invalidate;
        end;
      end;
    end;
  end;
end;
