unit ModflowEtsUnit;

interface

uses Windows, ZLib, SysUtils, Classes, Contnrs, OrderedCollectionUnit,
  ModflowBoundaryUnit, DataSetUnit, ModflowCellUnit, ModflowEvtUnit,
  FormulaManagerUnit, SubscriptionUnit, RbwParser, SparseDataSets, GoPhastTypes,
  ModflowTransientListParameterUnit;

type

  TEtsSurfDepthRecord = record
    Cell: TCellLocation;
    EvapotranspirationSurface: double;
    EvapotranspirationDepth: double;
    DepthFractions: array of double;
    EtFractions: array of double;
    StartingTime: double;
    EndingTime: double;
    EvapotranspirationSurfaceAnnotation: string;
    EvapotranspirationDepthAnnotation: string;
    DepthFractionAnnotations: array of string;
    EtFractionAnnotations: array of string;
    // MODFLOW 6 TimeSeries (unused)
    DepthFractionTimeSeries: array of string;
    EtFractionTimeSeries: array of string;
    // PEST
    SurfacePest: string;
    SurfacePestSeries: string;
    SurfacePestMethod: TPestParamMethod;
    DepthPest: string;
    DepthPestSeries: string;
    DepthPestMethod: TPestParamMethod;
    // MODFLOW 6 TimeSeries
    SurfaceTimeSeries: string;
    DepthTimeSeries: string;
    procedure Assign(const Item: TEtsSurfDepthRecord);
    procedure Cache(Comp: TCompressionStream; Strings: TStringList);
    procedure Restore(Decomp: TDecompressionStream; Annotations: TStringList);
    procedure RecordStrings(Strings: TStringList);
  end;

  // @name is an array of @link(TEtsSurfDepthRecord)s.
  TEtsSurfDepthArray = array of TEtsSurfDepthRecord;

  TEtsSurfDepthStorage = class(TCustomBoundaryStorage)
  private
    FEtsSurfDepthArray: TEtsSurfDepthArray;
    function GetEtsSurfDepthArray: TEtsSurfDepthArray;
  protected
    procedure Restore(DecompressionStream: TDecompressionStream; Annotations: TStringList); override;
    procedure Store(Compressor: TCompressionStream); override;
    procedure Clear; override;
  public
    property EtsSurfDepthArray: TEtsSurfDepthArray read GetEtsSurfDepthArray;
  end;

  TEtsStringValueItem = class(TCustomStringValueItem)
  public
    constructor Create(Collection: TCollection); override;
    destructor Destroy; override;
  end;

  TStringCollectionPurpose = (scpDepthFractions, scpEtFractions);
  TEtsSurfDepthCollection = class;

  TEtsStringCollection = class(TCustomStringCollection)
  private
    FPurpose: TStringCollectionPurpose;
  public
    procedure Assign(Source: TPersistent); override;
    constructor Create(Model: TBaseModel; ScreenObject: TObject;
      EtsSurfDepthCollection: TCustomListArrayBoundColl);
    property Purpose: TStringCollectionPurpose read FPurpose write FPurpose;
  end;

  // @name represents a MODFLOW ET layer for one time interval.
  // @name is stored by @link(TEtsSurfDepthCollection).
  TEtsSurfDepthItem = class(TCustomModflowBoundaryItem)
  private
    FEvapotranspirationSurface: TFormulaObject;
    FEvapotranspirationDepth: TFormulaObject;
    FDepthFractions: TEtsStringCollection;
    FEtFractions: TEtsStringCollection;
    // See @link(EvapotranspirationSurface).
    procedure SetEvapotranspirationSurface(const Value: string);
    procedure SetEvapotranspirationDepth(const Value: string);
    procedure SetDepthFractions(const Value: TEtsStringCollection);
    procedure SetEtFractions(const Value: TEtsStringCollection);
    function GetEvapotranspirationDepth: string;
    function GetEvapotranspirationSurface: string;
  protected
    procedure RemoveFormulaObjects; override;
    procedure CreateFormulaObjects; override;
    procedure AssignObserverEvents(Collection: TCollection); override;
    procedure GetPropertyObserver(Sender: TObject; List: TList); override;
    // See @link(BoundaryFormula).
    function GetBoundaryFormula(Index: integer): string; override;
    // See @link(BoundaryFormula).
    procedure SetBoundaryFormula(Index: integer; const Value: string); override;
    // @name checks whether AnotherItem is the same as the current @classname.
    function IsSame(AnotherItem: TOrderedItem): boolean; override;
    function BoundaryFormulaCount: integer; override;
  public
    constructor Create(Collection: TCollection); override;
    destructor Destroy; override;
  published
    // @name copies Source to this @classname.
    procedure Assign(Source: TPersistent);override;
    // @name is the formula used to set the recharge rate
    // or the recharge rate multiplier of this boundary.
    property EvapotranspirationSurface: string read GetEvapotranspirationSurface
      write SetEvapotranspirationSurface;
    property EvapotranspirationDepth: string read GetEvapotranspirationDepth
      write SetEvapotranspirationDepth;
    property EtFractions: TEtsStringCollection read FEtFractions
      write SetEtFractions;
    property DepthFractions: TEtsStringCollection read FDepthFractions
      write SetDepthFractions;
  end;

  TEtsSurfDepthTimeListLink = class(TTimeListsModelLink)
  private
    // @name is used to compute the evapotranspiration surface for a series of
    // cells over a series of time intervals.
    FEvapotranspirationSurfaceData: TModflowTimeList;
    FEvapotranspirationDepthData: TModflowTimeList;
    FListOfEtFractionLists: TList;
    FListOfDepthFractionLists: TList;
  protected
    procedure CreateTimeLists; override;
  public
    Destructor Destroy; override;
  end;

  TEtsSurfDepthCollection = class(TCustomMF_ArrayBoundColl)
  private
    FTimeListCount: integer;
    procedure InvalidateEtFractions(Sender: TObject);
    procedure InvalidateDepthFractions(Sender: TObject);
    procedure InvalidateEtSurface(Sender: TObject);
    procedure InvalidateEtDepth(Sender: TObject);
  protected
    function GetTimeListLinkClass: TTimeListsModelLinkClass; override;
    procedure AddSpecificBoundary(AModel: TBaseModel); override;
    function GetTimeList(Index: integer; AModel: TBaseModel): TModflowTimeList; override;
    // See @link(TCustomListArrayBoundColl.AssignArrayCellValues
    // TCustomListArrayBoundColl.AssignArrayCellValues)
    procedure AssignArrayCellValues(DataSets: TList; ItemIndex: Integer;
      AModel: TBaseModel; PestSeries: TStringList; PestMethods: TPestMethodList;
      PestItemNames, TimeSeriesNames: TStringListObjectList); override;
    // See @link(TCustomListArrayBoundColl.InitializeTimeLists
    // TCustomListArrayBoundColl.InitializeTimeLists)
    procedure InitializeTimeLists(ListOfTimeLists: TList; AModel: TBaseModel;
      PestSeries: TStringList; PestMethods: TPestMethodList;
      PestItemNames, TimeSeriesNames: TStringListObjectList; Writer: TObject); override;
    // See @link(TCustomNonSpatialBoundColl.ItemClass
    // TCustomNonSpatialBoundColl.ItemClass)
    class function ItemClass: TBoundaryItemClass; override;
    // @name calls inherited @name and then sets the length of
    // the @link(TEtsSurfDepthStorage.EtsSurfDepthArray) at ItemIndex in
    // @link(TCustomMF_BoundColl.Boundaries) to BoundaryCount.
    // It also sets the length of each member of  to
    // @link(TEtsPackageSelection.SegmentCount
    // TPhastModel.ModflowPackages.EtsPackage.SegmentCount).
    // @SeeAlso(TCustomMF_BoundColl.SetBoundaryStartAndEndTime
    // TCustomMF_BoundColl.SetBoundaryStartAndEndTime)
    procedure SetBoundaryStartAndEndTime(BoundaryCount: Integer;
      Item: TCustomModflowBoundaryItem; ItemIndex: Integer; AModel: TBaseModel); override;
  public
    procedure Assign(Source: TPersistent); override;
    function TimeListCount(AModel: TBaseModel): integer; override;
  end;

  TEtsLayerTimeListLink = class(TEvtLayerTimeListLink)
  protected
    procedure CreateTimeLists; override;
  end;

  TEtsLayerCollection = class(TEvtLayerCollection)
  protected
    function GetTimeListLinkClass: TTimeListsModelLinkClass; override;
  end;

  TEtsSurfDepth_Cell = class(TValueCell)
  private
    Values: TEtsSurfDepthRecord;
    StressPeriod: integer;
    function GetEvapotranspirationSurface: double;
    function GetEvapotranspirationDepth: double;
    function GetDepthFractions(const Index: integer): double;
    function GetEtFractions(const Index: integer): double;
    function GetDepthFractionAnnotations(const Index: integer): string;
    function GetEtFractionAnnotations(const Index: integer): string;
    function GetEvapotranspirationDepthAnnotation: string;
    function GetEvapotranspirationSurfaceAnnotation: string;
    function GetDepthPest: string;
    function GetDepthPestMethod: TPestParamMethod;
    function GetDepthPestSeries: string;
    function GetSurfacePest: string;
    function GetSurfacePestMethod: TPestParamMethod;
    function GetSurfacePestSeries: string;
    function GetDepthTimeSeries: string;
    function GetSurfaceTimeSeries: string;
    procedure SetDepthTimeSeries(const Value: string);
    procedure SetSurfaceTimeSeries(const Value: string);
  protected
    function GetColumn: integer; override;
    function GetLayer: integer; override;
    function GetRow: integer; override;
    procedure SetColumn(const Value: integer); override;
    procedure SetLayer(const Value: integer); override;
    procedure SetRow(const Value: integer); override;
    function GetIntegerValue(Index: integer; AModel: TBaseModel): integer; override;
    function GetRealValue(Index: integer; AModel: TBaseModel): double; override;
    function GetRealAnnotation(Index: integer; AModel: TBaseModel): string; override;
    function GetIntegerAnnotation(Index: integer; AModel: TBaseModel): string; override;
    procedure Cache(Comp: TCompressionStream; Strings: TStringList); override;
    procedure Restore(Decomp: TDecompressionStream; Annotations: TStringList); override;
    function GetSection: integer; override;
    procedure RecordStrings(Strings: TStringList); override;
    function GetPestName(Index: Integer): string; override;
    function GetPestSeriesMethod(Index: Integer): TPestParamMethod; override;
    function GetPestSeriesName(Index: Integer): string; override;
    function GetMf6TimeSeriesName(Index: Integer): string; override;
    procedure SetMf6TimeSeriesName(Index: Integer; const Value: string); override;
  public
    property EvapotranspirationSurface: double read GetEvapotranspirationSurface;
    property EvapotranspirationDepth: double read GetEvapotranspirationDepth;
    property DepthFractions[const Index: integer]: double read GetDepthFractions;
    property EtFractions[const Index: integer]: double read GetEtFractions;
    property EvapotranspirationSurfaceAnnotation: string read GetEvapotranspirationSurfaceAnnotation;
    property EvapotranspirationDepthAnnotation: string read GetEvapotranspirationDepthAnnotation;
    property DepthFractionAnnotations[const Index: integer]: string read GetDepthFractionAnnotations;
    property EtFractionAnnotations[const Index: integer]: string read GetEtFractionAnnotations;
//    property TimeSeriesName: string read GetTimeSeriesName;
    //PEST properties
    property SurfacePest: string read GetSurfacePest;
    property SurfacePestSeries: string read GetSurfacePestSeries;
    property SurfacePestMethod: TPestParamMethod read GetSurfacePestMethod;
    property DepthPest: string read GetDepthPest;
    property DepthPestSeries: string read GetDepthPestSeries;
    property DepthPestMethod: TPestParamMethod read GetDepthPestMethod;
    property SurfaceTimeSeries: string read GetSurfaceTimeSeries
      write SetSurfaceTimeSeries;
    property DepthTimeSeries: string read GetDepthTimeSeries
      write SetDepthTimeSeries;
  end;

  TEtsTimeListLink = class(TEvtTimeListLink)
  private
    FConcList: TList;
  protected
    procedure CreateTimeLists; override;
  public
    Destructor Destroy; override;
  end;

  TEtsCollection = class;

  TEtsGwtConcCollection = class(TGwtConcStringCollection)
    constructor Create(Model: TBaseModel; AScreenObject: TObject;
      ParentCollection: TEtsCollection);
  end;

  TEtsCollection = class(TEvtCollection)
  protected
    function GetTimeListLinkClass: TTimeListsModelLinkClass; override;
    procedure AssignConcentrationArrayCellValues(DataSets: TList; ItemIndex: Integer;
      AModel: TBaseModel; PestSeries: TStringList; PestMethods: TPestMethodList;
      PestItemNames, TimeSeriesNames: TStringListObjectList); override;
    procedure InitializeTimeLists(ListOfTimeLists: TList;
      AModel: TBaseModel; PestSeries: TStringList; PestMethods: TPestMethodList;
      PestItemNames, TimeSeriesNames: TStringListObjectList; Writer: TObject); override;
    function SpeciesCount: Integer; override;
    procedure InvalidateGwtConcentrations(Sender: TObject); override;
  public
  end;

  // @name represents the MODFLOW Evapotranspiration boundaries associated with
  // a single @link(TScreenObject).
  //
  // @seealso(TEvtCollection)
  // @seealso(TEtsSurfDepthCollection)
  TEtsBoundary = class(TModflowParamBoundary)
  private
    FEvapotranspirationLayers: TEtsLayerCollection;
    FEvtSurfDepthCollection: TEtsSurfDepthCollection;
    FNonParameterColumns: integer;
    FCurrentParameter: TModflowTransientListParameter;
    FPestDepthMethod: TPestParamMethod;
    FPestEvapotranspirationRateMethod: TPestParamMethod;
    FPestSurfaceMethod: TPestParamMethod;
    FPestEvapotranspirationRateFormula: TFormulaObject;
    FPestSurfaceFormula: TFormulaObject;
    FPestDepthFormula: TFormulaObject;
    FPestDepthObserver: TObserver;
    FPestEvapotranspirationRateObserver: TObserver;
    FPestSurfaceObserver: TObserver;
    FUsedObserver: TObserver;
    FPestConcentrationMethods: TPestMethodCollection;
    FPestConcentrationFormulas: TEtsGwtConcCollection;
    FConcentrationObservers: TObserverList;
    procedure SetEvapotranspirationLayers(const Value: TEtsLayerCollection);
    procedure SetEvtSurfDepthCollection(const Value: TEtsSurfDepthCollection);
    function GetTimeVaryingEvapotranspirationLayers: boolean;
    procedure AssignEvapotranspirationLayerCells(BoundaryStorage: TEvtLayerStorage;
      ValueTimeList: TList);
    procedure AssignSurfaceDepthCells(AModel: TBaseModel;
      BoundaryStorage: TEtsSurfDepthStorage; ValueTimeList: TList);
    function GetPestDepthFormula: string;
    function GetPestDepthObserver: TObserver;
    function GetPestEvapotranspirationRateFormula: string;
    function GetPestEvapotranspirationRateObserver: TObserver;
    function GetPestSurfaceObserver: TObserver;
    function GetPestSurfaceFormula: string;
    procedure SetPestDepthFormula(const Value: string);
    procedure SetPestDepthMethod(const Value: TPestParamMethod);
    procedure SetPestEvapotranspirationRateFormula(const Value: string);
    procedure SetPestEvapotranspirationRateMethod(
      const Value: TPestParamMethod);
    procedure SetPestSurfaceFormula(const Value: string);
    procedure SetPestSurfaceMethod(const Value: TPestParamMethod);
    procedure InvalidateDepthData(Sender: TObject);
    procedure InvalidateEvapotranspirationRateData(Sender: TObject);
    procedure InvalidateSurfaceData(Sender: TObject);
    procedure InvalidateConcData(Sender: TObject);
    procedure SetPestConcentrationFormulas(const Value: TEtsGwtConcCollection);
    procedure SetPestConcentrationMethods(const Value: TPestMethodCollection);
    function GetConcentrationObserver(const Index: Integer): TObserver;
  protected
    // @name fills ValueTimeList with a series of TObjectLists - one for
    // each stress period.  Each such TObjectList is filled with
    // @link(TEvt_Cell)s for that stress period.
    procedure AssignCells(BoundaryStorage: TCustomBoundaryStorage;
      ValueTimeList: TList; AModel: TBaseModel); override;
    // See @link(TModflowBoundary.BoundaryCollectionClass
    // TModflowBoundary.BoundaryCollectionClass).
    class function BoundaryCollectionClass: TMF_BoundCollClass; override;
    // See @link(TModflowParamBoundary.ModflowParamItemClass
    // TModflowParamBoundary.ModflowParamItemClass).
    class function ModflowParamItemClass: TModflowParamItemClass; override;
    function ParameterType: TParameterType; override;
    // PEST
    procedure HandleChangedValue(Observer: TObserver); //override;
    function GetUsedObserver: TObserver; //override;
    procedure GetPropertyObserver(Sender: TObject; List: TList); override;
    procedure CreateFormulaObjects; //override;
    function BoundaryObserverPrefix: string; override;
    procedure CreateObservers; //override;
    function GetPestBoundaryFormula(FormulaIndex: integer): string; override;
    procedure SetPestBoundaryFormula(FormulaIndex: integer;
      const Value: string); override;
    function GetPestBoundaryMethod(FormulaIndex: integer): TPestParamMethod; override;
    procedure SetPestBoundaryMethod(FormulaIndex: integer;
      const Value: TPestParamMethod); override;
    property PestEvapotranspirationRateObserver: TObserver
      read GetPestEvapotranspirationRateObserver;
    property PestSurfaceObserver: TObserver
      read GetPestSurfaceObserver;
    property PestDepthObserver: TObserver
      read GetPestDepthObserver;
    property ConcentrationObserver[const Index: Integer]: TObserver
      read GetConcentrationObserver;
  public
    Constructor Create(Model: TBaseModel; ScreenObject: TObject);
    Destructor Destroy; override;
    procedure Assign(Source: TPersistent);override;
    // @name fills ValueTimeList via a call to AssignCells for each
    // link  @link(TEvtStorage) in
    // @link(TCustomMF_BoundColl.Boundaries Values.Boundaries);
    // Those represent non-parameter boundary conditions.
    // @name fills ParamList with the names of the
    // MODFLOW Evapotranspiration parameters that are in use.
    // The Objects property of ParamList has TObjectLists
    // Each such TObjectList is filled via a call to AssignCells
    // with each @link(TEvtStorage) in @link(TCustomMF_BoundColl.Boundaries
    // Param.Param.Boundaries)
    // Those represent parameter boundary conditions.
    procedure GetCellValues(ValueTimeList: TList; ParamList: TStringList;
      AModel: TBaseModel; Writer: TObject); override;
    function Used: boolean; override;
    procedure EvaluateArrayBoundaries(AModel: TBaseModel; Writer: TObject); override;
    function NonParameterColumns: integer; override;
    property TimeVaryingEvapotranspirationLayers: boolean
      read GetTimeVaryingEvapotranspirationLayers;
    procedure GetEvapotranspirationLayerCells(LayerTimeList: TList; AModel: TBaseModel);
    procedure GetEvapotranspirationSurfaceDepthCells(LayerTimeList: TList; AModel: TBaseModel);
    procedure InvalidateDisplay; override;
    procedure Clear; override;
    class function DefaultBoundaryMethod(
      FormulaIndex: integer): TPestParamMethod; override;
  published
    property EvapotranspirationLayers: TEtsLayerCollection
      read FEvapotranspirationLayers write SetEvapotranspirationLayers;
    property EtsSurfDepthCollection: TEtsSurfDepthCollection
      read FEvtSurfDepthCollection write SetEvtSurfDepthCollection;
    property Interp;
    property PestEvapotranspirationRateFormula: string
      read GetPestEvapotranspirationRateFormula
      write SetPestEvapotranspirationRateFormula
      {$IFNDEF PEST}
      Stored False
      {$ENDIF}
      ;
    property PestEvapotranspirationRateMethod: TPestParamMethod
      read FPestEvapotranspirationRateMethod
      write SetPestEvapotranspirationRateMethod
      {$IFNDEF PEST}
      Stored False
      {$ENDIF}
      ;
    property PestSurfaceFormula: string read GetPestSurfaceFormula
      write SetPestSurfaceFormula
      {$IFNDEF PEST}
      Stored False
      {$ENDIF}
      ;
    property PestSurfaceMethod: TPestParamMethod read FPestSurfaceMethod
      write SetPestSurfaceMethod
      {$IFNDEF PEST}
      Stored False
      {$ENDIF}
      ;
    property PestDepthFormula: string read GetPestDepthFormula
      write SetPestDepthFormula
      {$IFNDEF PEST}
      Stored False
      {$ENDIF}
      ;
    property PestDepthMethod: TPestParamMethod read FPestDepthMethod
      write SetPestDepthMethod
      {$IFNDEF PEST}
      Stored False
      {$ENDIF}
      ;
    property PestConcentrationFormulas: TEtsGwtConcCollection
      read FPestConcentrationFormulas write SetPestConcentrationFormulas
      {$IFNDEF GWT}
      Stored False
      {$ENDIF}
      ;
    property PestConcentrationMethods: TPestMethodCollection
      read FPestConcentrationMethods write SetPestConcentrationMethods
      {$IFNDEF GWT}
      Stored False
      {$ENDIF}
      ;
  end;

resourcestring
  StrEvapotranspirationD_ETS = 'Evapotranspiration depth in the ETS package ' +
  'is less than zero';
  StrEvaporationDepthFr = 'Evaporation depth or rate fractions not assigned';

const
  EtsSurfacePosition = 0;
  EtsDepthPosition = 1;

const
  RateBoundaryPosition = 0;
  SurfaceBoundaryPosition = 1;
  DepthBoundaryPosition = 2;
  EtsStartConcentration = 3;

implementation

uses ScreenObjectUnit, PhastModelUnit, ModflowTimeUnit, TempFiles,
  frmGoPhastUnit, frmErrorsAndWarningsUnit, ModflowTimeSeriesUnit,
  ModflowParameterUnit, ModelMuseUtilities, CustomModflowWriterUnit,
  System.Generics.Collections;

resourcestring
  StrFractionalRateS = 'Fractional rate %s';
  StrInSEvaportionsDe = 'In %s evaporation depth or rate fractions have not been ass' +
  'igned.';

{ TEtsBoundary }

procedure TEtsBoundary.Assign(Source: TPersistent);
var
  SourceBoundary: TEtsBoundary;
  EvtBoundary: TEvtBoundary;
begin
  if Source is TEtsBoundary then
  begin
    SourceBoundary := TEtsBoundary(Source);
    EvapotranspirationLayers := SourceBoundary.EvapotranspirationLayers;
//    TimeVaryingEvapotranspirationLayers := SourceBoundary.TimeVaryingEvapotranspirationLayers;
    EtsSurfDepthCollection := SourceBoundary.EtsSurfDepthCollection;
    FNonParameterColumns := SourceBoundary.NonParameterColumns;

    PestEvapotranspirationRateFormula := SourceBoundary.PestEvapotranspirationRateFormula;
    PestEvapotranspirationRateMethod := SourceBoundary.PestEvapotranspirationRateMethod;
    PestSurfaceFormula := SourceBoundary.PestSurfaceFormula;
    PestSurfaceMethod := SourceBoundary.PestSurfaceMethod;
    PestDepthFormula := SourceBoundary.PestDepthFormula;
    PestDepthMethod := SourceBoundary.PestDepthMethod;

    PestConcentrationFormulas := SourceBoundary.PestConcentrationFormulas;
    PestConcentrationMethods := SourceBoundary.PestConcentrationMethods;
  end;
  if Source is TEvtBoundary then
  begin
    EvtBoundary := TEvtBoundary(Source);
    EvapotranspirationLayers.Assign(EvtBoundary.EvapotranspirationLayers);
//    TimeVaryingEvapotranspirationLayers := EvtBoundary.TimeVaryingEvapotranspirationLayers;
    EtsSurfDepthCollection.Assign(EvtBoundary.EvtSurfDepthCollection);
    FNonParameterColumns := EvtBoundary.NonParameterColumns;

    PestEvapotranspirationRateFormula := EvtBoundary.PestEvapotranspirationRateFormula;
    PestEvapotranspirationRateMethod := EvtBoundary.PestEvapotranspirationRateMethod;
    PestSurfaceFormula := EvtBoundary.PestSurfaceFormula;
    PestSurfaceMethod := EvtBoundary.PestSurfaceMethod;
    PestDepthFormula := EvtBoundary.PestDepthFormula;
    PestDepthMethod := EvtBoundary.PestDepthMethod;
  end;
  inherited;
end;

procedure TEtsBoundary.AssignEvapotranspirationLayerCells(BoundaryStorage: TEvtLayerStorage;
  ValueTimeList: TList);
var
  Cell: TEvapotranspirationLayerCell;
  BoundaryValues: TEvtLayerRecord;
  BoundaryIndex: Integer;
  StressPeriod: TModflowStressPeriod;
  TimeIndex: Integer;
  Cells: TValueCellList;
  LocalBoundaryStorage: TEvtLayerStorage;
begin
  LocalBoundaryStorage := BoundaryStorage;// as TEvtStorage;
  for TimeIndex := 0 to
    (ParentModel as TPhastModel).ModflowFullStressPeriods.Count - 1 do
  begin
    if TimeIndex < ValueTimeList.Count then
    begin
      Cells := ValueTimeList[TimeIndex];
    end
    else
    begin
      Cells := TValueCellList.Create(TEvapotranspirationLayerCell);
      ValueTimeList.Add(Cells);
    end;
    StressPeriod := (ParentModel as TPhastModel).ModflowFullStressPeriods[TimeIndex];
    // Check if the stress period is completely enclosed within the times
    // of the LocalBoundaryStorage;
    if (StressPeriod.StartTime >= LocalBoundaryStorage.StartingTime)
      and (StressPeriod.EndTime <= LocalBoundaryStorage.EndingTime) then
    begin
//      Cells.CheckRestore;
      for BoundaryIndex := 0 to Length(LocalBoundaryStorage.EvtLayerArray) - 1 do
      begin
//        Cells.Cached := False;
        BoundaryValues := LocalBoundaryStorage.EvtLayerArray[BoundaryIndex];
        Cell := TEvapotranspirationLayerCell.Create;
        Cells.Add(Cell);
        Cell.StressPeriod := TimeIndex;
        Cell.Values := BoundaryValues;
      end;
      Cells.Cache;
    end;
  end;
  LocalBoundaryStorage.CacheData;
end;

procedure TEtsBoundary.AssignSurfaceDepthCells(AModel: TBaseModel;
  BoundaryStorage: TEtsSurfDepthStorage; ValueTimeList: TList);
var
  Cell: TEtsSurfDepth_Cell;
  BoundaryValues: TEtsSurfDepthRecord;
  BoundaryIndex: Integer;
  StressPeriod: TModflowStressPeriod;
  TimeIndex: Integer;
  Cells: TValueCellList;
  LocalBoundaryStorage: TEtsSurfDepthStorage;
begin
  LocalBoundaryStorage := BoundaryStorage;
  for TimeIndex := 0 to
    (ParentModel as TPhastModel).ModflowFullStressPeriods.Count - 1 do
  begin
    if TimeIndex < ValueTimeList.Count then
    begin
      Cells := ValueTimeList[TimeIndex];
    end
    else
    begin
      Cells := TValueCellList.Create(TEtsSurfDepth_Cell);
      ValueTimeList.Add(Cells);
    end;
    StressPeriod := (ParentModel as TPhastModel).ModflowFullStressPeriods[TimeIndex];
    // Check if the stress period is completely enclosed within the times
    // of the LocalBoundaryStorage;
    if (StressPeriod.StartTime >= LocalBoundaryStorage.StartingTime)
      and (StressPeriod.EndTime <= LocalBoundaryStorage.EndingTime) then
    begin
//      Cells.CheckRestore;
      for BoundaryIndex := 0 to Length(LocalBoundaryStorage.EtsSurfDepthArray) - 1 do
      begin
//        Cells.Cached := False;
        BoundaryValues := LocalBoundaryStorage.EtsSurfDepthArray[BoundaryIndex];
        Cell := TEtsSurfDepth_Cell.Create;
        Cells.Add(Cell);
        Cell.StressPeriod := TimeIndex;
        Cell.Values.Assign(BoundaryValues);
        if BoundaryValues.EvapotranspirationDepth <= 0 then
        begin
          frmErrorsAndWarnings.AddError(AModel, StrEvapotranspirationD_ETS,
            Format(StrSP_Lay_Row_Col,
            [TimeIndex+1, Cell.Layer+1, Cell.Row+1, Cell.Column + 1]));
        end;
      end;
      Cells.Cache;
    end;
  end;
  LocalBoundaryStorage.CacheData;
end;

procedure TEtsBoundary.AssignCells(BoundaryStorage: TCustomBoundaryStorage;
  ValueTimeList: TList; AModel: TBaseModel);
var
  Cell: TEvt_Cell;
  BoundaryValues: TEvtRecord;
  BoundaryIndex: Integer;
  StressPeriod: TModflowStressPeriod;
  TimeIndex: Integer;
  Cells: TValueCellList;
  LocalBoundaryStorage: TEvtStorage;
  LocalModel: TCustomModel;
  LocalScreenObject: TScreenObject;
begin
  LocalModel := AModel as TCustomModel;
  LocalBoundaryStorage := BoundaryStorage as TEvtStorage;
  Assert(ScreenObject <> nil);
  LocalScreenObject := ScreenObject as TScreenObject;
  for TimeIndex := 0 to
    LocalModel.ModflowFullStressPeriods.Count - 1 do
  begin
    if TimeIndex < ValueTimeList.Count then
    begin
      Cells := ValueTimeList[TimeIndex];
//      Cells.CheckRestore;
    end
    else
    begin
      Cells := TValueCellList.Create(TEvt_Cell);
      ValueTimeList.Add(Cells);
    end;
    StressPeriod := LocalModel.ModflowFullStressPeriods[TimeIndex];
    // Check if the stress period is completely enclosed within the times
    // of the LocalBoundaryStorage;
    if (StressPeriod.StartTime + LocalModel.SP_Epsilon >= LocalBoundaryStorage.StartingTime)
      and (StressPeriod.EndTime - LocalModel.SP_Epsilon <= LocalBoundaryStorage.EndingTime) then
    begin
      if Cells.Capacity < Cells.Count + Length(LocalBoundaryStorage.EvtArray) then
      begin
        Cells.Capacity := Cells.Count + Length(LocalBoundaryStorage.EvtArray)
      end;
//      Cells.CheckRestore;
      for BoundaryIndex := 0 to Length(LocalBoundaryStorage.EvtArray) - 1 do
      begin
        BoundaryValues := LocalBoundaryStorage.EvtArray[BoundaryIndex];
        if FCurrentParameter <> nil then
        begin
          BoundaryValues.EvapotranspirationRate :=
            BoundaryValues.EvapotranspirationRate * FCurrentParameter.Value;
          BoundaryValues.EvapotranspirationRateAnnotation := Format(Str0sMultipliedByT, [
            BoundaryValues.EvapotranspirationRateAnnotation, FCurrentParameter.ParameterName]);
          BoundaryValues.ETParameterName := FCurrentParameter.ParameterName;
          BoundaryValues.ETParameterValue := FCurrentParameter.Value;
        end
        else
        begin
          BoundaryValues.ETParameterName := '';
          BoundaryValues.ETParameterValue := 1;
        end;
        Cell := TEvt_Cell.Create;
        Cell.BoundaryIndex := BoundaryIndex;
        Assert(ScreenObject <> nil);
        Cell.IFace := LocalScreenObject.IFace;
        Cells.Add(Cell);
        Cell.StressPeriod := TimeIndex;
        Cell.Values := BoundaryValues;
        Cell.ScreenObject := ScreenObject;
//        LocalModel.AdjustCellPosition(Cell);
      end;
      Cells.Cache;
    end;
  end;
  LocalBoundaryStorage.CacheData;
end;

class function TEtsBoundary.BoundaryCollectionClass: TMF_BoundCollClass;
begin
  result := TEtsCollection;
end;

function TEtsBoundary.BoundaryObserverPrefix: string;
begin
  result := 'PestEts_';
end;

procedure TEtsBoundary.Clear;
begin
  inherited;
  EvapotranspirationLayers.Clear;
  EtsSurfDepthCollection.Clear;
end;

constructor TEtsBoundary.Create(Model: TBaseModel; ScreenObject: TObject);
begin
  inherited Create(Model, ScreenObject);
  FPestConcentrationFormulas:= TEtsGwtConcCollection.Create(Model, ScreenObject, nil);
  FPestConcentrationMethods := TPestMethodCollection.Create(Model);
  FConcentrationObservers := TObserverList.Create;

  FEvapotranspirationLayers := TEtsLayerCollection.Create(self, Model, ScreenObject);