unit ModflowConstantHeadBoundaryUnit;

interface

uses Windows, ZLib, SysUtils, Classes, Contnrs, OrderedCollectionUnit,
  ModflowBoundaryUnit, ModflowCellUnit,
  FormulaManagerUnit, FormulaManagerInterfaceUnit,
  SubscriptionUnit, RbwParser, GoPhastTypes,
  ModflowTransientListParameterUnit, OrderedCollectionInterfaceUnit,
  Modflow6DynamicTimeSeriesInterfaceUnit, System.Math;

type
  // @name stores data for one CHD cell in a time increment defined by
  // @link(StartingTime) and @link(EndingTime).
  // The @link(StartingTime) and @link(EndingTime) may or may not be
  // the starting and ending time of stress periods.
  // @member(Cell Cell is the cell to which this boundary applies.)
  // @member(StartingHead StartingHead is the specified head
  //   for this boundary at @link(StartingTime).)
  // @member(EndingHead EndingHead is the specified head
  //   for this boundary at @link(EndingTime). EndingHead is not used
  //   in MODFLOW 6.)
  // @member(StartingTime StartingTime is when this boundary
  //   first begins to apply.)
  // @member(EndingTime EndingTime is when this boundary ceases to apply.)
  // @member(StartAnnotation StartAnnotation tells how
  //  @link(StartingHead) was assigned.)
  // @member(EndAnnotation EndAnnotation tells how
  //  @link(EndingHead) was assigned.)
  // @member(HeadTimeSeriesName HeadTimeSeriesName is the name of a time
  //  series for MODFLOW 6.)
  TChdRecord = record
    Cell: TCellLocation;
    Active: Boolean;
    StartingHead: double;
    EndingHead: double;
    StartingTime: double;
    EndingTime: double;
    ActiveAnnotation: string;
    StartAnnotation: string;
    EndAnnotation: string;
    HeadParameterName: string;
    HeadParameterValue: double;
    // PEST
    StartHeadPest: string;
    EndHeadPest: string;
    StartHeadPestSeriesName: string;
    EndHeadPestSeriesName: string;
    StartHeadPestSeriesMethod: TPestParamMethod;
    EndHeadPestSeriesMethod: TPestParamMethod;
    // MF6
    Multiplier: double;
    MultiplierAnnotation: string;
    MultiplierPest: string;
    MultiplierPestSeriesName: string;
    MultiplierPestSeriesMethod: TPestParamMethod;

    HeadTimeSeriesName: string;
    MultiplierTimeSeriesName: string;

    // GWT Concentrations
    GwtConcentrations: TGwtCellData;
    procedure Assign(const Item: TChdRecord);
    procedure Cache(Comp: TCompressionStream; Strings: TStringList);
    procedure Restore(Decomp: TDecompressionStream; Annotations: TStringList);
    procedure RecordStrings(Strings: TStringList);
  end;

  TChdArray = array of TChdRecord;

  TChdStorage = class(TCustomBoundaryStorage)
  private
    FChdArray: TChdArray;
    function GetChdArray: TChdArray;
  protected
    procedure Restore(DecompressionStream: TDecompressionStream; Annotations: TStringList); override;
    procedure Store(Compressor: TCompressionStream); override;
    procedure Clear; override;
  public
    property ChdArray: TChdArray read GetChdArray;
  end;

  TChdTimeListLink = class(TTimeListsModelLink)
  private
    FStartData: TModflowTimeList;
    FEndData: TModflowTimeList;
    FActiveData: TModflowTimeList;
    FMultiplierData: TModflowTimeList;
    FConcList: TModflowTimeLists;
    procedure AddGwtTimeLists(SpeciesIndex: Integer);
    procedure RemoveGwtTimeLists(SpeciesIndex: Integer);
  protected
    procedure UpdateGwtTimeLists; override;
  protected
    procedure CreateTimeLists; override;
  public
    Destructor Destroy; override;
  end;

  TChdCollection = class;

  TChdGwtConcCollection = class(TGwtConcStringCollection)
    constructor Create(Model: TBaseModel; AScreenObject: TObject;
      ParentCollection: TChdCollection);
  end;

  // @name represents MODFLOW Constant-Head boundaries
  // for a series of time intervals.
  TChdCollection = class(TCustomMF_ListBoundColl)
  protected
    class function GetTimeListLinkClass: TTimeListsModelLinkClass; override;
    procedure InvalidateActiveData(Sender: TObject);
    procedure InvalidateStartData(Sender: TObject);
    procedure InvalidateEndData(Sender: TObject);
    procedure InvalidateMultiplierData(Sender: TObject);
    procedure InvalidateGwtConcentrations(Sender: TObject);
    { TODO -cRefactor : Consider replacing Model with an interface. }
    //
    procedure SetBoundaryStartAndEndTime(BoundaryCount: Integer;
      Item: TCustomModflowBoundaryItem; ItemIndex: Integer; AModel: TBaseModel); override;
    // @name returns @link(TChdItem).
    class function ItemClass: TBoundaryItemClass; override;
    { TODO -cRefactor : Consider replacing Model with an interface. }
    //
    procedure AddSpecificBoundary(AModel: TBaseModel); override;
    procedure AssignListCellLocation(BoundaryStorage: TCustomBoundaryStorage;
      ACellList: TObject); override;
    { TODO -cRefactor : Consider replacing Model with an interface. }
    //
    procedure AssignCellList(CellAssignmentData: TCellAssignmentData); override;
    function AdjustedFormula(FormulaIndex, ItemIndex: integer): string;
      override;
    procedure InvalidateModel; override;
    function OkListDataTypes(BoundaryIndex: Integer): TRbwDataTypes; override;
  public
    { TODO -cRefactor : Consider replacing Model with an interface. }
    //
    constructor Create(Boundary: TModflowScreenObjectProperty;
      Model: IModelForTOrderedCollection; ScreenObject: TObject); override;
  end;

  // Each @name stores a @link(TChdCollection).
  // @classname is stored by @link(TModflowParameters).
  TChdParamItem = class(TModflowParamItem)
  protected
    class function BoundaryClass: TMF_BoundCollClass; override;
  end;
  
  // @name represents a MODFLOW Constant-Head boundary for one time interval.
  // @name is stored by TChdCollection.
  TChdItem = class(TCustomModflowBoundaryItem)
  private
    FActive: IFormulaObject;
    // See @link(EndHead).
    FEndHead: IFormulaObject;
    // See @link(StartHead).
    FStartHead: IFormulaObject;
    FMultiplier: IFormulaObject;
    FGwtConcentrations: TChdGwtConcCollection;
    // See @link(EndHead).
    procedure SetEndHead(const Value: string);
    // See @link(StartHead).
    procedure SetStartHead(const Value: string);
    function GetEndHead: string;
    function GetStartHead: string;
    procedure SetGwtConcentrations(const Value: TChdGwtConcCollection);
    function GetActive: string;
    procedure SetActive(const Value: string);
    function GetMultiplier: string;
    procedure SetMultiplier(const Value: string);
  protected
    procedure RemoveFormulaObjects; override;
    procedure CreateFormulaObjects; override;
    procedure AssignObserverEvents(Collection: TCollection); override;
    procedure GetPropertyObserver(Sender: TObject; List: TList); override;
    // See @link(BoundaryFormula).
    function GetBoundaryFormula(Index: integer): string; override;
    // See @link(BoundaryFormula).
    procedure SetBoundaryFormula(Index: integer; const Value: string); override;
    // @name checks whether AnotherItem is the same as the current @classname.
    function IsSame(AnotherItem: TOrderedItem): boolean; override;
    procedure InvalidateModel; override;
    function BoundaryFormulaCount: integer; override;
  public
    // @name copies Source to this @classname.
    procedure Assign(Source: TPersistent);override;
    constructor Create(Collection: TCollection); override;
    Destructor Destroy; override;
  published
    // @name is the formula used to set whether the boundary (or multiplier)
    // is active for a particular cell.
    property Active: string read GetActive write SetActive;
    // @name is the formula used to set the ending head
    // or the ending head multiplier of this boundary.
    property EndHead: string read GetEndHead write SetEndHead;
    // @name is the formula used to set the starting head
    // or the starting head multiplier of this boundary.
    property StartHead: string read GetStartHead write SetStartHead;
    // @name is AuxMultiplier in MODFLOW 6
    property Multiplier: string read GetMultiplier write SetMultiplier;
    // @name is Concentrations in MODFLOW 6 GWT.
    property GwtConcentrations: TChdGwtConcCollection read FGwtConcentrations
      write SetGwtConcentrations;
  end;

  TCHD_Cell = class(TValueCell)
  private
    FValues: TChdRecord;
    StressPeriod: integer;
    function GetEndingHead: double;
    function GetStartingHead: double;
    function GetEndingHeadAnnotation: string;
    function GetStartingHeadAnnotation: string;
    function GetHeadParameterName: string;
    function GetHeadParameterValue: double;
    function GetEndHeadPest: string;
    function GetEndHeadPestSeriesMethod: TPestParamMethod;
    function GetEndHeadPestSeriesName: string;
    function GetStartHeadPest: string;
    function GetStartHeadPestSeriesMethod: TPestParamMethod;
    function GetStartHeadPestSeriesName: string;

    function GetHeadTimeSeriesName: string;
    procedure SetHeadTimeSeriesName(const Value: string);

    function GetConcentration(const Index: Integer): double;
    function GetConcentrationAnnotation(const Index: Integer): string;
    function GetConcentrationPestName(const Index: Integer): string;
    function GetConcentrationPestSeriesMethod(
      const Index: Integer): TPestParamMethod;
    function GetConcentrationPestSeriesName(const Index: Integer): string;
    function GetConcentrationTimeSeriesName(const Index: Integer): string;
    function GetActive: Boolean;
    function GetActiveAnnotation: String;

    function GetMultiplier: double;
    function GetMultiplierAnnotation: string;
    function GetMultiplierPest: string;
    function GetMultiplierPestSeriesMethod: TPestParamMethod;
    function GetMultiplierPestSeriesName: string;
    function GetMultiplierTimeSeriesName: string;
    procedure SetMultiplierTimeSeriesName(const Value: string);
  protected
    property Values: TChdRecord read FValues;
    function GetColumn: integer; override;
    function GetLayer: integer; override;
    function GetRow: integer; override;
    procedure SetColumn(const Value: integer); override;
    procedure SetLayer(const Value: integer); override;
    procedure SetRow(const Value: integer); override;
    function GetBooleanValue(Index: integer; AModel: TBaseModel): boolean; override;
    function GetBooleanAnnotation(Index: integer; AModel: TBaseModel): string; override;
    { TODO -cRefactor : Consider replacing Model with an interface. }
    //
    function GetIntegerValue(Index: integer; AModel: TBaseModel): integer; override;
    { TODO -cRefactor : Consider replacing Model with an interface. }
    //
    function GetRealValue(Index: integer; AModel: TBaseModel): double; override;
    { TODO -cRefactor : Consider replacing Model with an interface. }
    //
    function GetRealAnnotation(Index: integer; AModel: TBaseModel): string; override;
    { TODO -cRefactor : Consider replacing Model with an interface. }
    //
    function GetIntegerAnnotation(Index: integer; AModel: TBaseModel): string; override;
    procedure Cache(Comp: TCompressionStream; Strings: TStringList); override;
    procedure Restore(Decomp: TDecompressionStream; Annotations: TStringList); override;
    function GetSection: integer; override;
    procedure RecordStrings(Strings: TStringList); override;
    function GetPestName(Index: Integer): string; override;
    function GetPestSeriesMethod(Index: Integer): TPestParamMethod; override;
    function GetPestSeriesName(Index: Integer): string; override;
    function GetMf6TimeSeriesName(Index: Integer): string; override;
    procedure SetMf6TimeSeriesName(Index: Integer; const Value: string); override;
  public
    property Active: Boolean read GetActive;
    property ActiveAnnotation: String read GetActiveAnnotation;
    property StartingHead: double read GetStartingHead;
    property EndingHead: double read GetEndingHead;
    property StartingHeadAnnotation: string read GetStartingHeadAnnotation;
    property EndingHeadAnnotation: string read GetEndingHeadAnnotation;

    // MF6
    property Multiplier: double read GetMultiplier;
    property MultiplierAnnotation: string read GetMultiplierAnnotation;
    property MultiplierPest: string read GetMultiplierPest;
    property MultiplierPestSeriesName: string read GetMultiplierPestSeriesName;
    property MultiplierPestSeriesMethod: TPestParamMethod read GetMultiplierPestSeriesMethod;
    // MODFLOW-2005
    property HeadParameterName: string read GetHeadParameterName;
    property HeadParameterValue: double read GetHeadParameterValue;
    //PEST properties
    property StartHeadPest: string read GetStartHeadPest;
    property EndHeadPest: string read GetEndHeadPest;
    property StartHeadPestSeriesName: string read GetStartHeadPestSeriesName;
    property EndHeadPestSeriesName: string read GetEndHeadPestSeriesName;
    property StartHeadPestSeriesMethod: TPestParamMethod
      read GetStartHeadPestSeriesMethod;
    property EndHeadPestSeriesMethod: TPestParamMethod
      read GetEndHeadPestSeriesMethod;
    //MF6
    property HeadTimeSeriesName: string read GetHeadTimeSeriesName
      write SetHeadTimeSeriesName;
    property MultiplierTimeSeriesName: string read GetMultiplierTimeSeriesName
      write SetMultiplierTimeSeriesName;
    // GWT
    property Concentrations[const Index: Integer]: double
      read GetConcentration;
    property ConcentrationAnnotations[const Index: Integer]: string
      read GetConcentrationAnnotation;
    property ConcentrationPestNames[const Index: Integer]: string
      read GetConcentrationPestName;
    property ConcentrationPestSeriesNames[const Index: Integer]: string
      read GetConcentrationPestSeriesName;
    property ConcentrationPestSeriesMethods[const Index: Integer]: TPestParamMethod
      read GetConcentrationPestSeriesMethod;
    property ConcentrationTimeSeriesNames[const Index: Integer]: string
      read GetConcentrationTimeSeriesName;

    function IsIdentical(AnotherCell: TValueCell): boolean; override;
  end;


  // @name represents the MODFLOW Constant-Head boundaries associated with
  // a single @link(TScreenObject).
  //See also TChdCollection in implementation section
  // @seealso(TModflowParameters)
  TChdBoundary = class(TModflowParamBoundary)
  private
    FCurrentParameter: TModflowTransientListParameter;

    FPestStartingHeadMethod: TPestParamMethod;
    FPestEndingHeadMethod: TPestParamMethod;
    FPestMultiplierMethod: TPestParamMethod;

    FPestStartingHeadFormula: IFormulaObject;
    FPestEndingHeadFormula: IFormulaObject;
    FPestMultiplierFormula: IFormulaObject;

    FPestEndingObserver: TObserver;
    FPestStartingObserver: TObserver;
    FPestActiveObserver: TObserver;
    FPestMultiplierObserver: TObserver;

    FUsedObserver: TObserver;

    FPestConcentrationMethods: TGwtPestMethodCollection;
    FPestConcentrationFormulas: TChdGwtConcCollection;
    FConcentrationObservers: TObserverList;

    function GetPestEndingHeadObserver: TObserver;
    function GetPestEndingHeadFormula: string;
    procedure SetPestEndingHeadFormula(const Value: string);
    procedure SetPestEndingHeadMethod(const Value: TPestParamMethod);
    procedure InvalidateEndingHeadData(Sender: TObject);

    function GetPestStartingHeadObserver: TObserver;
    function GetPestStartingHeadFormula: string;
    procedure SetPestStartingHeadFormula(const Value: string);
    procedure SetPestStartingHeadMethod(const Value: TPestParamMethod);
    procedure InvalidateStartingHeadData(Sender: TObject);

    function GetDummyPestActiveObserver: TObserver;
    procedure InvalidateActiveData(Sender: TObject);

    procedure InvalidateConcData(Sender: TObject);
    procedure SetPestConcentrationFormulas(const Value: TChdGwtConcCollection);
    procedure SetPestConcentrationMethods(const Value: TGwtPestMethodCollection);
    function GetConcentrationObserver(const Index: Integer): TObserver;

    function GetPestMultiplierObserver: TObserver;
    function GetPestMultiplierFormula: string;
    procedure SetPestMultiplierFormula(const Value: string);
    procedure SetPestMultiplierMethod(const Value: TPestParamMethod);
    procedure InvalidateMultiplierData(Sender: TObject);
  protected
    { TODO -cRefactor : Consider replacing Model with an interface. }
    //
    procedure AssignCells(BoundaryStorage: TCustomBoundaryStorage;
      ValueTimeList: TList; AModel: TBaseModel);  override;
    class function BoundaryCollectionClass: TMF_BoundCollClass; override;
    class function ModflowParamItemClass: TModflowParamItemClass; override;
    function ParameterType: TParameterType; override;

    procedure HandleChangedValue(Observer: TObserver); //override;
    function GetUsedObserver: TObserver; //override;
    procedure GetPropertyObserver(Sender: TObject; List: TList); override;
    procedure CreateFormulaObjects; //override;
    function BoundaryObserverPrefix: string; override;
    procedure CreateObservers; //override;
    property DummyPestActiveObserver: TObserver read GetDummyPestActiveObserver;
    property PestStartingHeadObserver: TObserver read GetPestStartingHeadObserver;
    property PestEndingHeadObserver: TObserver read GetPestEndingHeadObserver;
    property PestMultiplierObserver: TObserver read GetPestMultiplierObserver;
    property ConcentrationObserver[const Index: Integer]: TObserver
      read GetConcentrationObserver;
    function GetPestBoundaryFormula(FormulaIndex: integer): string; override;
    procedure SetPestBoundaryFormula(FormulaIndex: integer;
      const Value: string); override;
    function GetPestBoundaryMethod(FormulaIndex: integer): TPestParamMethod; override;
    procedure SetPestBoundaryMethod(FormulaIndex: integer;
      const Value: TPestParamMethod); override;
  public
    Constructor Create(Model: TBaseModel; ScreenObject: TObject);
    destructor Destroy; override;
    procedure Assign(Source: TPersistent);override;
    { TODO -cRefactor : Consider replacing Model with an interface. }
    //
    procedure GetCellValues(ValueTimeList: TList; ParamList: TStringList;
      AModel: TBaseModel; Writer: TObject); override;
    procedure InvalidateDisplay; override;
    class function DefaultBoundaryMethod(
      FormulaIndex: integer): TPestParamMethod; override;
  published
    property Interp;
    property PestStartingHeadFormula: string read GetPestStartingHeadFormula
      write SetPestStartingHeadFormula;
    property PestEndingHeadFormula: string read GetPestEndingHeadFormula
      write SetPestEndingHeadFormula;
    property PestStartingHeadMethod: TPestParamMethod read FPestStartingHeadMethod
      write SetPestStartingHeadMethod;
    property PestEndingHeadMethod: TPestParamMethod
      read FPestEndingHeadMethod write SetPestEndingHeadMethod;

    property PestMultiplierFormula: string read GetPestMultiplierFormula
      write SetPestMultiplierFormula;
    property PestMultiplierMethod: TPestParamMethod read FPestMultiplierMethod
      write SetPestMultiplierMethod;

    property PestConcentrationFormulas: TChdGwtConcCollection
      read FPestConcentrationFormulas write SetPestConcentrationFormulas;
    property PestConcentrationMethods: TGwtPestMethodCollection
      read FPestConcentrationMethods write SetPestConcentrationMethods;
  end;

const
  ChdActivePosition = 0;
  ChdStartHeadPosition = 1;
  ChdEndHeadPosition = 2;
  ChdMultiplierPosition = 3;
  ChdStartConcentration = 4;

resourcestring
  StrCHDStartingHeadSe = 'CHD Starting Head set to zero because of a math er' +
  'ror';
  StrCHDEndingHeadSet = 'CHD Ending Head set to zero because of a math error';
  StrCHDConcentrationSe = 'CHD Concentration set to zero because of a math e' +
  'rror';
  StrCHDMultiplierSet = 'CHD Multiplier set to one because of a math error';

implementation

uses PhastModelUnit, ScreenObjectUnit, ModflowTimeUnit,
  frmGoPhastUnit, GIS_Functions,
  frmErrorsAndWarningsUnit, CellLocationUnit;

resourcestring
  FormatString =
    'Assigned by interpolation between the starting head of %0:f at '
    + 't = %1:f (%2:s) and the ending head of %3:f at t = %4:f (%5:s).';
  StrStartingHeadMulti = ' starting head multiplier';
  StrEndingHeadMultipl = ' ending head multiplier';
  StrNoValidCHDBoundar = 'No valid CHD boundary times defined.';
  StrNoValidCHDBoundar2 = 'No valid CHD boundary times are defined for the p' +
  'arameter ';
  StrActiveSpecifiedHeaError = 'Active Specified Head set to false because of a m' +
  'ath error';
  StrMultiplier = 'Multiplier';


{ TChdItem }

procedure TChdItem.Assign(Source: TPersistent);
var
  Chd: TChdItem;
begin
  // if Assign is updated, update IsSame too.
  if Source is TChdItem then
  begin
    Chd := TChdItem(Source);
    Active := Chd.Active;
    StartHead := Chd.StartHead;
    EndHead := Chd.EndHead;
    Multiplier := Chd.Multiplier;
    GwtConcentrations := Chd.GwtConcentrations;
  end;
  inherited;
end;

procedure TChdItem.RemoveFormulaObjects;
begin
  frmGoPhast.PhastModel.FormulaManager.Remove(FActive,
    GlobalRemoveModflowBoundaryItemSubscription, GlobalRestoreModflowBoundaryItemSubscription, self);
  frmGoPhast.PhastModel.FormulaManager.Remove(FStartHead,
    GlobalRemoveModflowBoundaryItemSubscription, GlobalRestoreModflowBoundaryItemSubscription, self);
  frmGoPhast.PhastModel.FormulaManager.Remove(FEndHead,
    GlobalRemoveModflowBoundaryItemSubscription, GlobalRestoreModflowBoundaryItemSubscription, self);
  frmGoPhast.PhastModel.FormulaManager.Remove(FMultiplier,
    GlobalRemoveModflowBoundaryItemSubscription, GlobalRestoreModflowBoundaryItemSubscription, self);
end;

constructor TChdItem.Create(Collection: TCollection);
var
  ChdCol: TChdCollection;
begin
  ChdCol := Collection as TChdCollection;
  FGwtConcentrations := TChdGwtConcCollection.Create(Model as TCustomModel, ScreenObject,
    ChdCol);
  inherited;
  Active := 'True';
  Multiplier := '1';
end;

procedure TChdItem.CreateFormulaObjects;
begin
  FActive := CreateFormulaObject(dso3D);
  FStartHead := CreateFormulaObject(dso3D);
  FEndHead := CreateFormulaObject(dso3D);
  FMultiplier := CreateFormulaObject(dso3D);
end;

destructor TChdItem.Destroy;
begin
  FGwtConcentrations.Free;
  Active := 'False';
  StartHead := '0';
  EndHead := '0';
  Multiplier := '0';
  inherited;
end;

procedure TChdItem.AssignObserverEvents(Collection: TCollection);
var
  ActiveObserver: TObserver;
  EndObserver: TObserver;
  StartObserver: TObserver;
  MultiplierObserver: TObserver;
  ParentCollection: TChdCollection;
  ConcIndex: Integer;
begin
  ParentCollection := Collection as TChdCollection;
  ActiveObserver := FObserverList[ChdActivePosition];
  ActiveObserver.OnUpToDateSet := ParentCollection.InvalidateActiveData;
  StartObserver := FObserverList[ChdStartHeadPosition];
  StartObserver.OnUpToDateSet := ParentCollection.InvalidateStartData;
  EndObserver := FObserverList[ChdEndHeadPosition];
  EndObserver.OnUpToDateSet := ParentCollection.InvalidateEndData;
  MultiplierObserver := FObserverList[ChdMultiplierPosition];
  MultiplierObserver.OnUpToDateSet := ParentCollection.InvalidateMultiplierData;
  for ConcIndex := 0 to GwtConcentrations.Count - 1 do
  begin
    GwtConcentrations[ConcIndex].Observer.OnUpToDateSet
      := ParentCollection.InvalidateGwtConcentrations;
  end;
end;

function TChdItem.BoundaryFormulaCount: integer;
begin
  result := ChdStartConcentration;
  if GwtConcentrations <> nil then
  begin
    if (Model <> nil) and Model.GwtUsed then
    begin
      GwtConcentrations.Count := (Model as TCustomModel).MobileComponents.Count;
    end;
    if frmGoPhast.PhastModel.GwtUsed then
    begin
      result := result + GwtConcentrations.Count;
    end;
  end;
end;

function TChdItem.GetActive: string;
begin
  FActive.ScreenObject := ScreenObjectI;
  try
    Result := FActive.Formula;
  finally
    FActive.ScreenObject := nil;
  end;
  ResetItemObserver(ChdActivePosition);
end;

function TChdItem.GetBoundaryFormula(Index: integer): string;
var
  Item: TGwtConcStringValueItem;
begin
  case Index of
    ChdActivePosition: result := Active;
    ChdStartHeadPosition: result := StartHead;
    ChdEndHeadPosition: result := EndHead;
    ChdMultiplierPosition: result := Multiplier;
    else
      begin
        Dec(Index, ChdStartConcentration);
        while GwtConcentrations.Count <= Index do
        begin
          GwtConcentrations.Add;
        end;
        Item := GwtConcentrations[Index];
        result := Item.Value;
      end;
  end;
end;

function TChdItem.GetEndHead: string;
begin
  FEndHead.ScreenObject := ScreenObjectI;
  try
    Result := FEndHead.Formula;
    if result = '' then
    begin
      result := '1';
    end;
  finally
    FEndHead.ScreenObject := nil;
  end;
  ResetItemObserver(ChdEndHeadPosition);
end;

function TChdItem.GetMultiplier: string;
begin
  FMultiplier.ScreenObject := ScreenObjectI;
  try
    Result := FMultiplier.Formula;
  finally
    FMultiplier.ScreenObject := nil;
  end;
  ResetItemObserver(ChdMultiplierPosition);
end;

procedure TChdItem.GetPropertyObserver(Sender: TObject; List: TList);
var
  ConcIndex: Integer;
  Item: TGwtConcStringValueItem;
begin
  if Sender = FActive as TObject then
  begin
    List.Add(FObserverList[ChdActivePosition]);
  end;
  if Sender = FStartHead as TObject then
  begin
    List.Add(FObserverList[ChdStartHeadPosition]);
  end;
  if Sender = FEndHead as TObject then
  begin
    List.Add(FObserverList[ChdEndHeadPosition]);
  end;
  if Sender = FMultiplier as TObject then
  begin
    List.Add(FObserverList[ChdMultiplierPosition]);
  end;
  for ConcIndex := 0 to GwtConcentrations.Count - 1 do
  begin
    Item := GwtConcentrations.Items[ConcIndex];
    if (Item.ValueObject as TObject) = Sender then
    begin
      List.Add(Item.Observer);
    end;
  end;
end;

function TChdItem.GetStartHead: string;
begin
  FStartHead.ScreenObject := ScreenObjectI;
  try
    Result := FStartHead.Formula;
  finally
    FStartHead.ScreenObject := nil;
  end;
  ResetItemObserver(ChdStartHeadPosition);
end;

procedure TChdItem.InvalidateModel;
var
  PhastModel: TPhastModel;
begin
  inherited;
  PhastModel := Model as TPhastModel;
  if (PhastModel <> nil)
    and not (csDestroying in PhastModel.ComponentState)
    and not PhastModel.Clearing then
  begin
    PhastModel.InvalidateMfChdActive(self);
    PhastModel.InvalidateMfChdStartingHead(self);
    PhastModel.InvalidateMfChdEndingHead(self);
    PhastModel.InvalidateMfChdMultiplier(self);
    PhastModel.InvalidateMfChdConc(self);
  end;
end;

function TChdItem.IsSame(AnotherItem: TOrderedItem): boolean;
var
  Item: TChdItem;
begin
  result := (AnotherItem is TChdItem) and inherited IsSame(AnotherItem);
  if result then
  begin
    Item := TChdItem(AnotherItem);
    result := (Item.Active = Active)
      and (Item.EndHead = EndHead)
      and (Item.StartHead = StartHead)
      and (Item.Multiplier = Multiplier)
      and (Item.GwtConcentrations.IsSame(GwtConcentrations));
  end;
end;

{ TChdParamItem }
procedure TChdItem.SetActive(const Value: string);
begin
  UpdateFormulaBlocks(Value, ChdActivePosition, FActive);
end;

procedure TChdItem.SetBoundaryFormula(Index: integer; const Value: string);
var
  Item: TGwtConcStringValueItem;
begin
  inherited;
  case Index of
    ChdActivePosition: Active := Value;
    ChdStartHeadPosition: StartHead := Value;
    ChdEndHeadPosition: EndHead := Value;
    ChdMultiplierPosition: Multiplier := Value;
    else
      begin
        Dec(Index, ChdStartConcentration);
        while Index >= GwtConcentrations.Count do
        begin
          GwtConcentrations.Add;
        end;
        Item := GwtConcentrations[Index];
        Item.Value := Value;
      end;
  end;
end;

procedure TChdItem.SetEndHead(const Value: string);
begin
  UpdateFormulaBlocks(Value, ChdEndHeadPosition, FEndHead);
end;

procedure TChdItem.SetGwtConcentrations(const Value: TChdGwtConcCollection);
begin
  FGwtConcentrations.Assign(Value);
end;

procedure TChdItem.SetMultiplier(const Value: string);
begin
  UpdateFormulaBlocks(Value, ChdMultiplierPosition, FMultiplier);

end;

procedure TChdItem.SetStartHead(const Value: string);
begin
  UpdateFormulaBlocks(Value, ChdStartHeadPosition, FStartHead);
end;

{ TChdParamItem }

class function TChdParamItem.BoundaryClass: TMF_BoundCollClass;
begin
  result := TChdCollection;
end;

{ TChdCollection }

class function TChdCollection.GetTimeListLinkClass: TTimeListsModelLinkClass;
begin
  result := TChdTimeListLink;
end;

procedure TChdCollection.AddSpecificBoundary(AModel: TBaseModel);
begin
  AddBoundary(TChdStorage.Create(AModel));
end;

function TChdCollection.AdjustedFormula(FormulaIndex,
  ItemIndex: integer): string;
var
  Item: TChdItem;
begin
  Item := Items[ItemIndex] as TChdItem;
  result := Item.BoundaryFormula[FormulaIndex];
end;

procedure TChdCollection.AssignCellList(CellAssignmentData: TCellAssignmentData);
var
  ChdStorage: TChdStorage;
  CellList: TCellAssignmentList;
  Index: Integer;
  ACell: TCellAssignment;
  ConcIndex: Integer;
  ErrorMessage: string;
  LocalScreenObject: TScreenObject;
  Expression: TExpression;
  ACellList: TObject;
  BoundaryStorage: TCustomBoundaryStorage;
  BoundaryFunctionIndex: integer;
  Variables, DataSets: TList;
  AModel: TBaseModel;
  AScreenObject: TObject;
  PestName: string;
  PestSeriesName: string;
  PestSeriesMethod: TPestParamMethod;
  TimeSeriesName: string;
  DynamicTimeSeries: IDynamicTimeSeries;
begin
  Expression := CellAssignmentData.Expression;
  ACellList := CellAssignmentData.ACellList;
  BoundaryStorage := CellAssignmentData.BoundaryStorage;
  BoundaryFunctionIndex := CellAssignmentData.BoundaryFunctionIndex;
  Variables := CellAssignmentData.Variables;
  DataSets := CellAssignmentData.DataSets;
  AModel := CellAssignmentData.AModel;
  AScreenObject := CellAssignmentData.AScreenObject;
  PestName := CellAssignmentData.PestName;
  PestSeriesName := CellAssignmentData.PestSeriesName;
  PestSeriesMethod := CellAssignmentData.PestSeriesMethod;
  TimeSeriesName := CellAssignmentData.TimeSeriesName;