unit ModflowSfrWriterUnit;

interface

uses System.UITypes,Windows, Types, SysUtils, Classes, Contnrs,
  CustomModflowWriterUnit,
  ModflowPackageSelectionUnit, PhastModelUnit, ScreenObjectUnit,
  ModflowSfrParamIcalcUnit, ModflowSfrUnit, ModflowSfrSegment,
  ModflowSfrUnsatSegment, ModflowBoundaryDisplayUnit, ModflowCellUnit,
  Generics.Collections, ModflowSfrReachUnit, GoPhastTypes, ModflowGridUnit,
  Vcl.Dialogs;


type
  TSegment = class;

  TReachList = TList<TSfr_Cell>;

  // @name is used for SFR segments in LGR models. Each segment has
  TSubSegment = class(TObject)
  private
    FReachList: TReachList;
    FSegment: TSegment;
    FModel: TBaseModel;
    // @name is the segment number for MODFLOW.
    FSegmentNumber: integer;
    // @name is the @classname of the other model that
    // is at the same location as this @classname.
    FAssociatedLgrSubSeg: TSubSegment;
    FTotalLength: double;
    FIndex: Integer;
    FUpstreamValues: array of TSfrSegmentRecord;
    FDownstreamValues: array of TSfrSegmentRecord;
    FUpstreamUnsatValues: array of TSfrUnsatSegmentRecord;
    FDownstreamUnsatValues: array of TSfrUnsatSegmentRecord;
    FParentUpstreamValues: array of TSfrSegmentRecord;
    FParentDownstreamValues: array of TSfrSegmentRecord;
    FParentUpstreamUnsatValues: array of TSfrUnsatSegmentRecord;
    FParentDownstreamUnsatValues: array of TSfrUnsatSegmentRecord;
    FUsed: boolean;
    FChildEdge: boolean;
    function GetReach(Index: Integer): TSfr_Cell;
  public
    constructor Create(AModel: TBaseModel; ASegment: TSegment; StressPeriodCount: integer);
    destructor Destroy; override;
    function AddReach(AReach: TSfr_Cell): Integer;
    function ReachCount: integer;
    property Reaches[Index: Integer]: TSfr_Cell read GetReach;
    procedure DeleteReach(Index: Integer);
    property SegmentNumber: integer read FSegmentNumber;
    property Used: boolean read FUsed;
    property ChildEdge: boolean read FChildEdge;
  end;

  TSubSegmentList = TObjectList<TSubSegment>;

  TSegment = class(TObject)
  private
    // @name contains @link(TSfr_Cell)
    FReaches: TValueCellList;
    FScreenObject: TScreenObject;
    // @name is used when sorting segments.
    FHasTributaries: boolean;
    // @name is the segment number exported to MODFLOW.
    FNewSegmentNumber: integer;
    FSubSegmentList: TSubSegmentList;
    FExternalFlow: TExternalFlowProperties;
    function GetReach(Index: integer): TValueCell;
    function GetReachCount: integer;
    procedure SetNewSegmentNumber(const Value: integer);
  public
    constructor Create;
    // @name is the segment number assigned by the user.
    function OriginalSegmentNumber: integer;
    // @name is the segment number exported to MODFLOW.
    property NewSegmentNumber: integer read FNewSegmentNumber
      write SetNewSegmentNumber;
    Destructor Destroy; override;
    function OriginalDownStreamSegmentNumbers: TIntegerDynArray;
    function OriginalDiversionSegmentNumbers: TIntegerDynArray;
    property Reaches[Index: integer]: TValueCell read GetReach;
    property ReachCount: integer read GetReachCount;
    function AddSubSegment(AModel: TBaseModel; StressPeriodCount: integer): TSubSegment;
    property SubSegmentList: TSubSegmentList read FSubSegmentList;
    property ExternalFlow: TExternalFlowProperties read FExternalFlow;
//    procedure DeleteReach(Index: Integer);
  end;

  TStreamDirection = (sdDownstream, sdUpstream);

  TModflowSFR_Writer = class;

  TSfrWriterList = TList<TModflowSFR_Writer>;

  TModflowSFR_Writer = class(TCustomPackageWriter)
  private
//    FNameOfFile: string;
    FValues: TList;
    FSegments: TList;
    FLakes: TList;
    ISFROPT: integer;
    NSFRPAR: integer;
    FLgrUsed: Boolean;
    FIsChildModel: Boolean;
    NUMTAB: Integer;
    MAXVAL: Integer;
    FSegDictionary: TDictionary<Integer, TSegment>;
    FLakDictionary: TDictionary<Integer, TScreenObject>;
    FSfrObservationsUsed: Boolean;
    function NewFormat: boolean;
    procedure CheckParamInstances;
    procedure WriteDataSet1a;
    procedure WriteDataSet1b;
    procedure WriteDataSet1c;
    procedure WriteDataSet2;
    procedure WriteDataSets3and4;
    procedure WriteDataSet4b6a(StartTime: double;
      Segment: TSegment; ParamScreenObjectItem: TSfrParamIcalcItem;
      SfrBoundary: TSfrBoundary; DataSet4B: boolean; SubSegIndex: integer);
    procedure WriteDataSet4c6b(Parameter: Boolean;
      SfrBoundary: TSfrBoundary; ParamScreenObjectItem: TSfrParamIcalcItem;
      StartTime: double; StressPeriodIndex: integer; Segment: TSegment;
      SubSegIndex: integer; ParameterValue: double);
    procedure WriteSegmentValues(StressPeriodIndex: Integer;
      Parameter: Boolean; UpOrDownStreamValues: TSfrSegmentStorage; upstream: Boolean;
      var CommentLine: string; var ValuesWriten: boolean;
      ParamScreenObjectItem: TSfrParamIcalcItem; PSegValue: PSfrSegmentRecord;
      Segment: TSegment; ParameterValue: double);
    procedure WriteUnsatSegmentValues(upstream: Boolean;
      var CommentLine: string; var ValuesWriten: boolean;
      UnsatUpstreamValues: TSfrUnsatSegmentStorage;
      PSegUnsatValue: PSfrUnsatSegmentRecord);
    procedure WriteDataSet4d6c(Parameter: Boolean; SfrBoundary: TSfrBoundary;
      ParamScreenObjectItem: TSfrParamIcalcItem;
      StartTime: double; StressPeriodIndex: integer; Segment: TSegment;
      SubSegIndex: integer; ParameterValue: double);
    procedure WriteDataSet4e6d(Parameter: Boolean; SfrBoundary: TSfrBoundary;
      ParamScreenObjectItem: TSfrParamIcalcItem; StressPeriod: integer;
      Segment: TSegment; SubSegIndex: integer);
    procedure WriteDataSet4f6e(Parameter: Boolean; SfrBoundary: TSfrBoundary;
      ParamScreenObjectItem: TSfrParamIcalcItem; StartTime: double;
      Segment: TSegment; SubSegIndex: integer);
    procedure WriteDataSet8(Segment: TSegment; SubSegIndex,
      TimeIndex: integer);
    procedure WriteDataSets5to7;
    function FindConvertedSegment(OriginalSegmentNumber: integer;
      Direction: TStreamDirection; out Segment: TSegment): integer;
    procedure WriteGages(GageLines: TStrings);
    function GetSegment(Index: integer): TSegment;
    function GetSegmentCount: integer;
    procedure TestBedElevations;
    procedure CreateLgrSubSegments;
    procedure RenumberLgrSubSegments;
    procedure WriteSegment(Segment: TSegment;
      StartTime: double; SubSegIndex: integer; Item: TSfrParamIcalcItem;
      Boundary: TSfrBoundary; TimeIndex: integer;
      IsParameter: boolean; ParameterValue: double);
    procedure LgrAdjustSegmentValues(
      Segment: TSegment; StartTime: double; SubSegIndex: integer;
      StressPeriod: integer);
    procedure AdjustLgrParamValues;
    procedure AdjustLgrNonParamValues;
    procedure AdjustLgrValues;
    procedure InternalUpdateDisplay(TimeLists: TModflowBoundListOfTimeLists);
    procedure AdjustReachLengths;
    procedure CheckOutflowSegments(StartTime: double;
      Segment: TSegment; ParamScreenObjectItem: TSfrParamIcalcItem;
      SfrBoundary: TSfrBoundary; SubSegIndex: integer);
    procedure CheckParameterSegments;
    procedure CheckNonParamSegments;
    procedure CheckStreamBottomElevation(ScreenObject: TScreenObject;
      Grid: TModflowGrid; SfrReach: TSfr_Cell);
    procedure WriteObsScript(const AFileName: string);
    procedure WriteFileInternal;
  protected
    class function Extension: string; override;
    function Package: TModflowPackageSelection; override;
    procedure SortSegments;
  public
    procedure Evaluate;
    procedure AssociateLgrSubSegments(SfrWriterList: TSfrWriterList);
    property Segments[Index: integer]: TSegment read GetSegment;
    property SegmentCount: integer read GetSegmentCount;
    Constructor Create(Model: TCustomModel; EvaluationType: TEvaluationType); override;
    destructor Destroy; override;
    procedure WriteFile(const AFileName: string; GageLines: TStrings);
    procedure UpdateDisplay(TimeLists: TModflowBoundListOfTimeLists);
  end;

  TExternalFlowFileWriter = class(TCustomModflowWriter)
  private
    FExternalFlow: TExternalFlowProperties;
    FFileName: string;
    FSegNum: Integer;
  protected
    class function Extension: string; override;
    constructor Create(AModel: TCustomModel;
      ExternalFlow: TExternalFlowProperties; Const SegNum: integer); reintroduce;
    procedure WriteFile(const AFileName: string);
  end;

implementation

uses ModflowUnitNumbers, OrderedCollectionUnit, frmErrorsAndWarningsUnit,
  ModflowTransientListParameterUnit, ModflowSfrTable,
  ModflowSfrFlows, ModflowSfrChannelUnit, ModflowSfrEquationUnit,
  ModflowTimeUnit, frmProgressUnit, IntListUnit, Forms,
  ModflowBoundaryUnit, Math, DataSetUnit, ObservationComparisonsUnit,
  PestObsUnit, ModelMuseUtilities;

resourcestring
  StrInvalidStartingTimeStep1 = 'Invalid starting time or missing data for the '
    + 'first time step in the following objects';

  StrInvalidStartingTime = 'Invalid starting time in the following objects';
  StrOneOrMoreSFRStre = 'One or more SFR stream segments have slopes that '
    + 'are zero or negative.';
  StrDownstreamOutOfOrder = 'In the SFR package, the following objects '
    + 'define streams that flow into streams with lower segment numbers.  '
    + 'Because the stream segments are in strict numerical order, ModelMuse '
    + 'will not renumber them. However, you may wish to check the order of the '
    + 'stream segments.';
  StrDiversionOutOfOrder = 'In the SFR package, the following objects define'
    + ' streams that divert flow from streams with higher segment numbers.  ' 
    + 'Because the stream segments are in strict numerical order, ModelMuse '
    + 'will not renumber them. However, you may wish to check the order of the '
    + 'stream segments.';
  StrLakeDownstreamError = 'In the SFR package, the following objects '
    + 'define streams that flow into lakes even though the lake package is ' +
      'not in use.';
  StrLakeDiversionError = 'In the SFR package, the following objects '
    + 'define streams that divert flow from lakes even though the lake ' +
      'package is not in use.';
  StrObjectSTime1 = 'Object: %0:s; Time: %1:g; Upstream elevation: %2:g; Downs' +
  'tream elevation: %3:g';
  StrNoStreamsDefined = 'No streams defined.';
  StrTheSFRPackageHas = 'The SFR package has been activated but no streams h' +
  'ave been defined.';
  StrDupParamInstances = 'The following objects contained duplicate SFR ' +
  'Parameter instances.';
//  StrObject0sLayer = 'Object = %0:s; Layer = %1:d; Row = %2:d; Column = %3:d';
  StrTheFollowingObject = 'The following objects specify external flow files' +
  ' that do not exist';
  StrStreamFlowFileDoe = 'Stream flow file does not exist.';
  StrTheStreamFlowFile2 = 'The stream flow file (%0:s) specified in object ' +
  '%1:s does not exist';
  StrEvaluatingSFRPacka = 'Evaluating SFR Package data.';
  StrEvaluatingS = '    Evaluating %s';
  StrWritingParamete = '    Writing parameter %s';
  StrWritingSFRPackage = 'Writing SFR Package input.';
//  StrWritingDataSet0 = '  Writing Data Set 0.';
//  StrWritingDataSet1 = '  Writing Data Set 1.';
//  StrWritingDataSet2 = '  Writing Data Set 2.';
//  StrWritingDataSets3and4 = '  Writing Data Sets 3 and 4.';
//  StrWritingDataSets5to7 = '  Writing Data Sets 5 to 7.';
  StrInterpolatedFromS = 'Interpolated from %s';
  Str0sMultipliedByP = '%0:s multiplied by Parameter: %1:s';
  WarningRootRL_Less_0 = 'SFR reach length (RCHLEN) <= 0';
  StrLargeSeparationBet = 'Large separation between connected segments';
  StrTheDownstreamEndO = 'The downstream end of %0:s is separated from the u' +
  'pstream end of %1:s by %2:d cells.';
  StrLargeDiversionSeparation = 'Large separation between diversion segment and source segment';
  StrWritingStressP = '    Writing stress period %d';
  StrCheckingStress = '    Checking stress period %d';
  StrInactiveReach = 'One or more SFR stream reaches are in inactive cell.';
  StrReachSeparationWarning = 'In the Streamflow Routing (SFR) package, some' +
  ' reaches are separated from previous reaches by more than one cell.';
  StrSegment0dReach = 'Segment: %0:d; Reach: %1:d; Stress Period: %2:d; Separation: %3:d';


  StrSegmentNumber = 'Segment Number in ';
  StrReachNumber = 'Reach Number in ';
  SfrICalcNumber = 'ICALC in ';
  StrDownstreamSegmentNumber = 'Outflow Segment Number in ';
  StrDiversionSegmentNumber = 'Diversion Segment Number in ';
  StrIprior = 'IPRIOR in ';
  StrHighSFRHydraulicC = 'High SFR hydraulic conductivity compared to the aq' +
  'uifer hydraulic conductivity may cause numerical difficulties';
  StrDuplicateSFRStream = 'Duplicate SFR Stream Segments Numbers';
  StrTheSFRSegmentNumb = 'The SFR segment number %0:d in %1:s is the same se' +
  'gment number as in another segment.';
  StrZeroSFRHydraulicC = 'Negative or zero SFR hydraulic conductivity';
  StrOneOrMoreReaches = 'One or more SFR reaches defined by the same object are ' +
  'in the same row and column but different layers.';
  StrAtRowcolumn = 'At (row,column) = (%0:d, %1:d) there are two or more SFR' +
  ' cells defined in different layers by the object %2:s';
  StrWhenUnsaturatedFlo = 'When unsaturated flow beneath SFR streams is simulate' +
  'd, streams must be in unconfined or convertible layers. This requirement ' +
  'is not met at the following locations.';
  StrObject0sLayer = 'Object: %0:s; (Layer, Row, Column) = (%1:d, %2:d, %3:d' +
  ').';
  StrTheMinimumZValue = 'The minimum Z value in a stream cross section must ' +
  'be zero. The zero value must be in positions 1 through 7 of the cross sec' +
  'tion. The following objects don''t meet ths criterion.';
  StrObject0sStartin = 'Object %0:s; Starting time: %1:g; Minimum Z: %2:g';
  StrTheBottomOfTheSt = 'The bottom of the stream bed is below the bottom of' +
  ' the cell at the following locations.';
  StrObject0sLayerThick = 'Object: %0:s; (Layer, Row, Column) = (%1:d, %2:d,' +
  ' %3:d); Streambed top: %4:g; Streambed thickness: %5:g; Cell Bottom: %6:g' +
  '.';
  StrTwoOrMoreLakeObjects = 'Two or more objects define the same lake ID.';
  StrTheLakeObjectNamed = 'The object named %0:s, defines the same Lake ID a' +
  's %1:s';
  StrTheSFRPackageIsN = 'The SFR package is not supported by MT3DMS.';
  StrAlthoughMT3DMSVers = 'Although MT3DMS version 5.3 supports the STR pack' +
  'age, is does not suppport the SFR package.';
  ZeroSlope = 'Object: %0:s; (Layer, Row, Column) = (%1:d, %2:d, %3:d)';
  StrTheSEndOfTheFo = 'The %s end of the following objects may be above or b' +
  'elow the grid';
  StrUpstream = 'upstream';
  StrDownstream = 'downstream';
  StrInvalidSFROption = 'Invalid SFR option';
  StrTheSOptionInNot = 'The %s option in not supported in this version of MO' +
  'DFLOW. It is supported in MODFLOW-NWT 1.1 and later';
  StrTABFILES = 'TABFILES';
  StrLOSSFACTOR = 'LOSSFACTOR';
  StrInvalidSFROutflow = 'Invalid SFR outflow segment';
  StrIn1sTheSFRSeg = 'In %0:s, the SFR segment number is the same as the out' +
  'flow segment number. The outflow segment number should be the number of t' +
  'he stream or lake into which the segment flows. The outflow segment ' +
  'should be zero if the segment does not flow into any other segment in the ' +
  'model.';
  StrSFRChildModelLink = 'SFR child model linkage undefined.';
  StrTheObjectSMayNo = 'The object %s may not set values for both the parent' +
  ' and child models. This may prevent the proper linking of streams between' +
  ' the parent and child models.';

resourcestring
  DupErrorCategory = 'Duplicate SFR segment numbers';
  CircularCategory = 'The following SFR segments circle back on themselves.';
  UnsatError = 'One or more objects do not define unsaturated flow properties '
    + 'in the SFR package.';
  DupNumbersError = 'The SFR segments defined by %0:s and %1:s have '
    + 'the same segment number: %2:d.';
  CircularError = 'Object: %0:s; Segment Number: %1:d.';

{ TModflowSFR_Writer }

function CompareSegments(Item1, Item2: Pointer): Integer;
var
  Segment1, Segment2: TSegment;
begin
  Segment1 := Item1;
  Segment2 := Item2;
  result := Segment1.OriginalSegmentNumber - Segment2.OriginalSegmentNumber;
end;

procedure TModflowSFR_Writer.AdjustReachLengths;
var
  Index: Integer;
  Segment: TSegment;
  SubSegIndex: Integer;
  SubSeg: TSubSegment;
  ReachIndex: Integer;
  AReach: TSfr_Cell;
  ParentSubSeg: TSubSegment;
  LocalChildModel: TChildModel;
  ParentCol: integer;
  ParentRow: Integer;
  ParentLayer: Integer;
  ParentReachIndex: Integer;
  ParentReachLengthTotal: double;
  Factor: Extended;
  MoreSubSegs: TList;
  InnerSubSegIndex: Integer;
  AnotherSubSeg: TSubSegment;
  ParentCol1: Integer;
  ParentRow1: Integer;
  ParentLayer1: Integer;
  ChildReachTotal: double;
begin
  if Model is TChildModel then
  begin
    LocalChildModel := TChildModel(Model);
    MoreSubSegs := TList.Create;
    try
      for Index := 0 to SegmentCount - 1 do
      begin
        Application.ProcessMessages;
        if not frmProgressMM.ShouldContinue then
        begin
          Exit;
        end;
        Segment := Segments[Index];
        for SubSegIndex := 0 to Segment.SubSegmentList.Count - 1 do
        begin
          SubSeg := Segment.SubSegmentList[SubSegIndex];
          if MoreSubSegs.IndexOf(SubSeg) >= 0 then
          begin
            Continue;
          end;
          if SubSeg.ChildEdge and (SubSeg.FTotalLength > 0) then
          begin
            MoreSubSegs.Clear;
            MoreSubSegs.Add(SubSeg);
            ParentSubSeg := SubSeg.FAssociatedLgrSubSeg;
            if (ParentSubSeg <> nil) and (SubSeg.ReachCount > 0) and (ParentSubSeg.ReachCount > 0) then
            begin
              AReach := SubSeg.Reaches[0];
              ParentCol := LocalChildModel.ChildColToParentCol(AReach.Column);
              ParentRow := LocalChildModel.ChildRowToParentRow(AReach.Row);
              ParentLayer := LocalChildModel.ChildLayerToParentLayer(AReach.Layer);

              for InnerSubSegIndex := SubSegIndex + 1 to Segment.SubSegmentList.Count - 1 do
              begin
                AnotherSubSeg := Segment.SubSegmentList[InnerSubSegIndex];
                if AnotherSubSeg.ReachCount > 0 then
                begin
                  AReach := AnotherSubSeg.Reaches[0];
                  ParentCol1 := LocalChildModel.ChildColToParentCol(AReach.Column);
                  ParentRow1 := LocalChildModel.ChildRowToParentRow(AReach.Row);
                  ParentLayer1 := LocalChildModel.ChildLayerToParentLayer(AReach.Layer);
                  if (ParentCol = ParentCol1)
                    and (ParentRow = ParentRow1)
                    and (ParentLayer = ParentLayer1) then
                  begin
                    MoreSubSegs.Add(AnotherSubSeg);
                  end
                  else
                  begin
                    Break;
                  end;
                end;
              end;

              ParentReachLengthTotal := 0;
              for ParentReachIndex := 0 to ParentSubSeg.ReachCount - 1 do
              begin
                AReach := ParentSubSeg.Reaches[ParentReachIndex];
                if (AReach.Column = ParentCol)
                  and (AReach.Row = ParentRow)
                  and (AReach.Layer = ParentLayer) then
                begin
                  ParentReachLengthTotal := ParentReachLengthTotal + AReach.ReachLength;
                end;
              end;

              if ParentReachLengthTotal > 0 then
              begin
                ChildReachTotal := 0;
                for InnerSubSegIndex := 0 to MoreSubSegs.Count - 1 do
                begin
                  AnotherSubSeg := MoreSubSegs[InnerSubSegIndex];
                  ChildReachTotal := ChildReachTotal + AnotherSubSeg.FTotalLength;
                end;

                Factor := ParentReachLengthTotal/ChildReachTotal;
                for InnerSubSegIndex := 0 to MoreSubSegs.Count - 1 do
                begin
                  AnotherSubSeg := MoreSubSegs[InnerSubSegIndex];
                  AnotherSubSeg.FTotalLength := AnotherSubSeg.FTotalLength * Factor;
                  for ReachIndex := 0 to AnotherSubSeg.ReachCount - 1 do
                  begin
                    AReach := AnotherSubSeg.Reaches[ReachIndex];
                    AReach.Values.AdjustReachLength(Factor);
                  end;
                end;

              end;
            end;
          end;
        end;
      end;
    finally
      MoreSubSegs.Free;
    end;
  end;

end;

procedure TModflowSFR_Writer.AdjustLgrValues;
begin
  AdjustReachLengths;
  AdjustLgrNonParamValues;
  AdjustLgrParamValues;
end;

procedure TModflowSFR_Writer.AssociateLgrSubSegments(
  SfrWriterList: TSfrWriterList);
var
  SegmentIndex: Integer;
  Segment: TSegment;
  SubSegIndex: Integer;
  SubSeg: TSubSegment;
  ChildWriter: TModflowSFR_Writer;
  ChildSeg: TSegment;
  ChildSubSeg: TSubSegment;
  ParentReach: TSfr_Cell;
  FirstChildReach: TSfr_Cell;
  LocalChildModel: TChildModel;
  ChildSubSegIndex: Integer;
  ParentCol: Integer;
  ParentRow: Integer;
  ParentLayer: Integer;
  ParentReachIndex: Integer;
  Number: Integer;
  WriterIndex: Integer;
  Writer: TModflowSFR_Writer;
  InnerIndex: Integer;
  AnotherChildSubSeg: TSubSegment;
  function GetChildWriter(AModel: TBaseModel): TModflowSFR_Writer;
  var
    ChildIndex: Integer;
    AWriter: TModflowSFR_Writer;
  begin
    result := nil;
    for ChildIndex := 0 to SfrWriterList.Count - 1 do
    begin
      AWriter := SfrWriterList[ChildIndex];
      if AWriter.Model = AModel then
      begin
        Result := AWriter;
        Exit;
      end;
    end;
  end;
  function GetMatchingChildSeg(Segment: TSegment;
    ChildWriter: TModflowSFR_Writer): TSegment;
  var
    ChildSegIndex: Integer;
    ChildSeg: TSegment;
  begin
    Assert(ChildWriter <> nil);
    Result := nil;
    for ChildSegIndex := 0 to ChildWriter.SegmentCount - 1 do
    begin
      ChildSeg := ChildWriter.Segments[ChildSegIndex];
      if Segment.FScreenObject = ChildSeg.FScreenObject then
      begin
        Result := ChildSeg;
        Exit;
      end;
    end;
  end;
begin
  if not Package.IsSelected then
  begin
    Exit
  end;
  if Model.PackageGeneratedExternally(StrSFR) then
  begin
    Exit;
  end;
  Assert((Model is TPhastModel) and TPhastModel(Model).LgrUsed);
  for SegmentIndex := 0 to SegmentCount - 1 do
  begin
    Segment := Segments[SegmentIndex];
    for SubSegIndex := 0 to Segment.FSubSegmentList.Count - 1 do
    begin
      SubSeg :=  Segment.FSubSegmentList[SubSegIndex];
      if SubSeg.FModel <> Model then
      begin
        LocalChildModel := SubSeg.FModel as TChildModel;
        ChildWriter := GetChildWriter(LocalChildModel);
        ChildSeg := GetMatchingChildSeg(Segment, ChildWriter);
        if ChildSeg <> nil then
        begin
          for ChildSubSegIndex := 0 to ChildSeg.FSubSegmentList.Count - 1 do
          begin
            ChildSubSeg := ChildSeg.FSubSegmentList[ChildSubSegIndex];
            if ChildSubSeg.FAssociatedLgrSubSeg <> nil then
            begin
              Continue;
            end;
            FirstChildReach := ChildSubSeg.Reaches[0];

            ParentCol := LocalChildModel.ChildColToParentCol(FirstChildReach.Column);
            ParentRow := LocalChildModel.ChildRowToParentRow(FirstChildReach.Row);
            ParentLayer := LocalChildModel.ChildLayerToParentLayer(FirstChildReach.Layer);
            for ParentReachIndex := 0 to SubSeg.ReachCount - 1 do
            begin
              ParentReach := SubSeg.Reaches[ParentReachIndex];
              if (ParentCol = ParentReach.Column)
                and (ParentRow = ParentReach.Row)
                and (ParentLayer = ParentReach.Layer)
                then
              begin
                if SubSeg.FAssociatedLgrSubSeg = nil then
                begin
                  SubSeg.FAssociatedLgrSubSeg := ChildSubSeg;
                end;
                ChildSubSeg.FAssociatedLgrSubSeg := SubSeg;
                break;
              end;
            end;
  //          Assert(ChildSubSeg.FAssociatedLgrSubSeg <> nil);
          end;

          for ChildSubSegIndex := 0 to ChildSeg.FSubSegmentList.Count - 1 do
          begin
            ChildSubSeg := ChildSeg.FSubSegmentList[ChildSubSegIndex];
            if ChildSubSeg.FAssociatedLgrSubSeg <> nil then
            begin
              Continue;
            end;

            for InnerIndex := ChildSubSegIndex -1 downto 0 do
            begin
              AnotherChildSubSeg := ChildSeg.FSubSegmentList[InnerIndex];
              if AnotherChildSubSeg.FAssociatedLgrSubSeg <> nil then
              begin
                ChildSubSeg.FAssociatedLgrSubSeg := AnotherChildSubSeg.FAssociatedLgrSubSeg;
                break;
              end;
            end;
            if ChildSubSeg.FAssociatedLgrSubSeg <> nil then
            begin
              Continue;
            end;
            for InnerIndex := ChildSubSegIndex +1 to ChildSeg.FSubSegmentList.Count - 1 do
            begin
              AnotherChildSubSeg := ChildSeg.FSubSegmentList[InnerIndex];
              if AnotherChildSubSeg.FAssociatedLgrSubSeg <> nil then
              begin
                ChildSubSeg.FAssociatedLgrSubSeg := AnotherChildSubSeg.FAssociatedLgrSubSeg;
                break;
              end;
            end;
//            Assert(ChildSubSeg.FAssociatedLgrSubSeg <> nil);
          end;
        end;

      end;
    end;
  end;
  if (Model as TPhastModel).LgrV1Used then
  begin
    for SegmentIndex := 0 to SegmentCount - 1 do
    begin
      Segment := Segments[SegmentIndex];
      for SubSegIndex := 0 to Segment.FSubSegmentList.Count - 1 do
      begin
        SubSeg :=  Segment.FSubSegmentList[SubSegIndex];
        if SubSeg.FModel <> Model then
        begin
          for ParentReachIndex := SubSeg.ReachCount - 1 downto 0 do
          begin
            ParentReach := SubSeg.Reaches[ParentReachIndex];
            if ParentReach.Values.ReachLength = 0 then
            begin
              SubSeg.DeleteReach(ParentReachIndex);
            end;
          end;
        end;
      end;
    end;
  end;
  Number := 1;
  for SegmentIndex := 0 to SegmentCount - 1 do
  begin
    Segment := Segments[SegmentIndex];
    Segment.NewSegmentNumber := Number;
    if Segment.FSubSegmentList.Count = 0 then
    begin
      Inc(Number);
    end
    else
    begin
      for SubSegIndex := 0 to Segment.FSubSegmentList.Count - 1 do
      begin
        SubSeg := Segment.FSubSegmentList[SubSegIndex];
        SubSeg.FSegmentNumber := Number;
        if SubSeg.ReachCount > 0 then
        begin
          Inc(Number);
        end;
      end;
    end;
  end;
  for WriterIndex := 0 to SfrWriterList.Count - 1 do
  begin
    Writer := SfrWriterList[WriterIndex];
    Writer.AdjustLgrValues;
  end;
  for WriterIndex := 0 to SfrWriterList.Count - 1 do
  begin
    Writer := SfrWriterList[WriterIndex];
    Writer.CheckParameterSegments;
    Writer.CheckNonParamSegments;
  end;
end;

procedure TModflowSFR_Writer.AdjustLgrParamValues;
var
  LocalModel: TCustomModel;
  ParamIndex: Integer;
  ParamItem: TModflowTransientListParameter;
  Instances: TList;
  SfrPackage: TSfrPackageSelection;
  Index: Integer;
  InstanceItem: TSfrParamInstance;
  Segment: TSegment;
  ScreenObject: TScreenObject;
  ScreenObjectParamIndex: Integer;
  ParamScreenObjectItem: TSfrParamIcalcItem;
  Segments : TList;
  InstanceIndex: Integer;
  SfrBoundary: TSfrBoundary;
  SubSegIndex: Integer;
//  MaxStressPeriodIndex: Integer;
  StartTime: Double;
  EndTime: Double;
  StressPeriodIndex: Integer;
begin
  LocalModel := Model as TCustomModel;
  SfrPackage := Package as TSfrPackageSelection;
//  MaxStressPeriodIndex :=LocalModel.ModflowFullStressPeriods.Count -1;
  StartTime := LocalModel.ModflowFullStressPeriods[0].StartTime;
  EndTime := LocalModel.ModflowFullStressPeriods[LocalModel.ModflowFullStressPeriods.Count -1].EndTime;
  for ParamIndex := 0 to LocalModel.ModflowTransientParameters.Count - 1 do
  begin
    ParamItem := LocalModel.ModflowTransientParameters.Items[ParamIndex];
    if ParamItem.ParameterType = ptSFR then
    begin
      Instances := TList.Create;
      Segments := TList.Create;
      try
        for Index := 0 to SfrPackage.ParameterInstances.Count - 1 do
        begin
          Application.ProcessMessages;
          if not frmProgressMM.ShouldContinue then
          begin
            Exit;
          end;
          InstanceItem := SfrPackage.ParameterInstances.Items[Index];
          if InstanceItem.ParameterName = ParamItem.ParameterName then
          begin
            if (StartTime <= InstanceItem.StartTime) and (EndTime >= InstanceItem.EndTime) then
            begin
              Instances.Add(InstanceItem);
            end;

          end;
        end;
        for Index := 0 to FSegments.Count - 1 do
        begin
          Application.ProcessMessages;
          if not frmProgressMM.ShouldContinue then
          begin
            Exit;
          end;
          Segment := FSegments[Index];
          ScreenObject := Segment.FScreenObject;
          Assert(ScreenObject.ModflowSfrBoundary <> nil);
          for ScreenObjectParamIndex := 0 to ScreenObject.ModflowSfrBoundary.ParamIcalc.Count - 1 do
          begin
            Application.ProcessMessages;
            if not frmProgressMM.ShouldContinue then
            begin
              Exit;
            end;
            ParamScreenObjectItem := ScreenObject.ModflowSfrBoundary.ParamIcalc.Items[ScreenObjectParamIndex];
            if ParamScreenObjectItem.Param = ParamItem.ParameterName then
            begin
              Segments.Add(Segment);
              break;
            end;
          end;
        end;
        for Index := 0 to Segments.Count - 1 do
        begin
          Application.ProcessMessages;
          if not frmProgressMM.ShouldContinue then
          begin
            Exit;
          end;
          Segment := Segments[Index];