unit ModflowFmp4LandUseBoundaryUnit;

interface

uses Windows, ZLib, SysUtils, Classes, Contnrs, OrderedCollectionUnit,
  ModflowBoundaryUnit, DataSetUnit, ModflowCellUnit, FormulaManagerUnit,
  SubscriptionUnit, SparseDataSets, GoPhastTypes;

type
  {
    @name stores the location, time and reference evapotranspiration rate for a cell.
  }
  TFmp4LandUseRecord = record
    Cell: TCellLocation;
    StartingTime: double;
    EndingTime: double;
    LandUseData: TLandUseData;
    procedure Cache(Comp: TCompressionStream; Strings: TStringList);
    procedure Restore(Decomp: TDecompressionStream; Annotations: TStringList);
    procedure RecordStrings(Strings: TStringList);
  end;

  // @name is an array of @link(TFmp4LandUseRecord)s.
  TFmp4LandUseArray = array of TFmp4LandUseRecord;

  // @name extends @link(TCustomBoundaryStorage) by adding the locations
  // and values of series of reference evapotranspiration cells.
  TFmp4LandUseStorage = class(TCustomBoundaryStorage)
  private
    FFmp4LandUseArray: TFmp4LandUseArray;
    function GetFmp4LandUseArray: TFmp4LandUseArray;
  protected
    procedure Restore(DecompressionStream: TDecompressionStream;
      Annotations: TStringList); override;
    procedure Store(Compressor: TCompressionStream); override;
    procedure Clear; override;
  public
    property Fmp4LandUseArray: TFmp4LandUseArray read GetFmp4LandUseArray;
  end;


  // @name is used in FMP4 Land Use
  TLandUseStringValueItem = class(TCustomStringValueItem)
    constructor Create(Collection: TCollection); override;
  end;

  // @name is used in FMP4 Land Use
  TLandUseStringCollection = class(TCustomStringCollection)
  private
    FUsedForPestSeries: Boolean;
    function GetLandUseItem(Index: Integer): TLandUseStringValueItem;
    procedure SetLandUseItem(Index: Integer; const Value: TLandUseStringValueItem);
    procedure SetUsedForPestSeries(const Value: Boolean);
  public
    property UsedForPestSeries: Boolean read FUsedForPestSeries
      write SetUsedForPestSeries;
    constructor Create(Model: TBaseModel; AScreenObject: TObject;
      ParentCollection: TCustomMF_BoundColl);
    property Items[Index: Integer]: TLandUseStringValueItem read GetLandUseItem
      write SetLandUseItem; default;
    function Add: TLandUseStringValueItem;
  end;

  // @name represents a MODFLOW land use values for the Farm Process
  // for one time interval.
  // @name is stored by @link(TFmp4LandUseCollection).
  TFmp4LandUseItem = class(TCustomModflowBoundaryItem)
  private
    // See @link(Fmp4LandUseValue).
    FFmp4LandUseValues: TLandUseStringCollection;
    procedure SetFmp4LandUseValues(const Value: TLandUseStringCollection);
    // See @link(Fmp4LandUseValue).
  protected
    procedure AssignObserverEvents(Collection: TCollection); override;
    procedure CreateFormulaObjects; override;
    procedure GetPropertyObserver(Sender: TObject; List: TList); override;
    procedure RemoveFormulaObjects; override;
    // See @link(BoundaryFormula).
    function GetBoundaryFormula(Index: integer): string; override;
    // See @link(BoundaryFormula).
    procedure SetBoundaryFormula(Index: integer; const Value: string); override;
    // @name checks whether AnotherItem is the same as the current @classname.
    function IsSame(AnotherItem: TOrderedItem): boolean; override;
    function BoundaryFormulaCount: integer; override;
  public
    // @name copies Source to this @classname.
    procedure Assign(Source: TPersistent);override;
    constructor Create(Collection: TCollection); override;
    Destructor Destroy; override;
  published
    // @name is the formula used to set the values of this boundary.
    property Fmp4LandUseValues: TLandUseStringCollection read FFmp4LandUseValues
      write SetFmp4LandUseValues;
  end;

  TFmp4LandUseTimeListLink = class(TTimeListsModelLink)
  private
    // @name is used to compute the values for a series of
    // cells over a series of time intervals.
    FLandUseList: TModflowTimeLists;
//    FFmp4LandUseValueData: TModflowTimeList;
    // @name must be assigned in Create by descendents.
    FOnInvalidateLanduse: TNotifyEvent;
    procedure AddLandUseTimeLists(CropIndex: Integer);
    procedure RemoveLandUseTimeLists(CropIndex: Integer);
    procedure UpdateLandUseTimeLists; virtual;
    procedure CreateTimeLists;
  protected
    // override CreateTimeLists in descendents
//    procedure CreateTimeLists; override;
//    property Fmp4LandUseValueData: TModflowTimeList read FFmp4LandUseValueData;
    { TODO -cFMP4 : override GetDescription  in each descendent}
    class function GetDescription: string; virtual; abstract;
    { TODO -cFMP4 : override AssignInvalidateEvent  in each descendent}
    procedure AssignInvalidateEvent; virtual; abstract;
  public
    Destructor Destroy; override;
  end;

  TFmp4TimeListLinkClass = class of TFmp4LandUseTimeListLink;

  // @name represents MODFLOW Farm Process land use values
  // for a series of time intervals.
  TFmp4LandUseCollection = class(TCustomMF_ArrayBoundColl)
  private
    procedure InvalidateLandUseValues(Sender: TObject);
  protected
    function PackageAssignmentMethod(AModel: TBaseModel): TUpdateMethod; virtual;
    { TODO -cFMP4 : override GetTimeListLinkClass  in each descendent}
    // override this
//    function GetTimeListLinkClass: TTimeListsModelLinkClass; override;
    procedure AddSpecificBoundary(AModel: TBaseModel); override;
    // See @link(TCustomListArrayBoundColl.AssignArrayCellValues
    // TCustomListArrayBoundColl.AssignArrayCellValues)
    procedure AssignArrayCellValues(DataSets: TList; ItemIndex: Integer;
      AModel: TBaseModel; PestSeries: TStringList; PestMethods: TPestMethodList;
      PestItemNames, TimeSeriesNames: TStringListObjectList); override;
    // See @link(TCustomListArrayBoundColl.InitializeTimeLists
    // TCustomListArrayBoundColl.InitializeTimeLists)
    procedure InitializeTimeLists(ListOfTimeLists: TList; AModel: TBaseModel;
      PestSeries: TStringList; PestMethods: TPestMethodList;
      PestItemNames, TimeSeriesNames: TStringListObjectList; Writer: TObject); override;
    // See @link(TCustomNonSpatialBoundColl.ItemClass
    // TCustomNonSpatialBoundColl.ItemClass)
    class function ItemClass: TBoundaryItemClass; override;
    // @name calls inherited @name and then sets the length of
    // the @link(TFmp4LandUseStorage.Fmp4LandUseArray) at ItemIndex in
    // @link(TCustomMF_BoundColl.Boundaries) to BoundaryCount.
    // @SeeAlso(TCustomMF_BoundColl.SetBoundaryStartAndEndTime
    // TCustomMF_BoundColl.SetBoundaryStartAndEndTime)
    procedure SetBoundaryStartAndEndTime(BoundaryCount: Integer;
      Item: TCustomModflowBoundaryItem; ItemIndex: Integer; AModel: TBaseModel); override;
  end;

  TFmp4CollectionClass = class of TFmp4LandUseCollection;

  // Each @name stores a @link(TFmp4LandUseCollection).
  // @classname is stored by @link(TModflowParameters).

  TFmp4LandUse_Cell = class(TValueCell)
  private
    FValues: TFmp4LandUseRecord;
    FStressPeriod: integer;
    function GetFmp4LandUseValue: double;
    function GetFmp4LandUseAnnotation: string;
  protected
    function GetColumn: integer; override;
    function GetLayer: integer; override;
    function GetRow: integer; override;
    procedure SetColumn(const Value: integer); override;
    procedure SetLayer(const Value: integer); override;
    procedure SetRow(const Value: integer); override;
    function GetIntegerValue(Index: integer; AModel: TBaseModel): integer; override;
    function GetRealValue(Index: integer; AModel: TBaseModel): double; override;
    function GetRealAnnotation(Index: integer; AModel: TBaseModel): string; override;
    function GetIntegerAnnotation(Index: integer; AModel: TBaseModel): string; override;
    procedure Cache(Comp: TCompressionStream; Strings: TStringList); override;
    procedure Restore(Decomp: TDecompressionStream; Annotations: TStringList); override;
    function GetSection: integer; override;
    procedure RecordStrings(Strings: TStringList); override;
  public
    property StressPeriod: integer read FStressPeriod write FStressPeriod;
    property Values: TFmp4LandUseRecord read FValues write FValues;
    property Fmp4LandUseValue: double read GetFmp4LandUseValue;
    property Fmp4ValueAnnotation: string read GetFmp4LandUseAnnotation;
  end;


  // @name represents the MODFLOW Farm Process land use values associated with
  // a single @link(TScreenObject).
  //
  // @seealso(TFmp4LandUseCollection)
  TFmp4LandUseBoundary = class(TModflowBoundary)
  private
    FPestValueMethod: TPestParamMethod;
    FPestValueFormula: TFormulaObject;
    FPestValueObserver: TObserver;
    FUsedObserver: TObserver;
    function GetPestValueFormula: string;
    procedure SetPestValueFormula(const Value: string);
    procedure SetPestValueMethod(const Value: TPestParamMethod);
    procedure RemoveFormulaObjects;
  protected
    { TODO -cFMP4 : override GetPestValueObserver in each descendent}
    function GetPestValueObserver: TObserver;
    // @name fills ValueTimeList with a series of TObjectLists - one for
    // each stress period.  Each such TObjectList is filled with
    // @link(TFmp4LandUse_Cell)s for that stress period.
    procedure AssignCells(BoundaryStorage: TCustomBoundaryStorage;
      ValueTimeList: TList; AModel: TBaseModel); override;
    // See @link(TModflowBoundary.BoundaryCollectionClass
    // TModflowBoundary.BoundaryCollectionClass).
    { TODO -cFMP4 : override BoundaryCollectionClass in each descendent}
    // override this
//    class function BoundaryCollectionClass: TMF_BoundCollClass; override;

    procedure HandleChangedValue(Observer: TObserver); //override;
    { TODO -cFMP4 : override GetUsedObserver in each descendent}
    function GetUsedObserver: TObserver;
    procedure CreateFormulaObjects; //override;
    procedure CreateObservers; //override;
    function GetPestBoundaryFormula(FormulaIndex: integer): string; override;
    procedure SetPestBoundaryFormula(FormulaIndex: integer;
      const Value: string); override;
    function GetPestBoundaryMethod(FormulaIndex: integer): TPestParamMethod; override;
    procedure SetPestBoundaryMethod(FormulaIndex: integer;
      const Value: TPestParamMethod); override;
    property PestValueObserver: TObserver read GetPestValueObserver;
    function BoundaryObserverPrefix: string; override;
    procedure InvalidateData(Sender: TObject); virtual; abstract;
  public
    Constructor Create(Model: TBaseModel; ScreenObject: TObject);
    Destructor Destroy; override;
    Procedure Assign(Source: TPersistent); override;
    // @name fills ValueTimeList via a call to AssignCells for each
    // link  @link(TFmp4LandUseStorage) in
    // @link(TCustomMF_BoundColl.Boundaries Values.Boundaries);
    // Those represent non-parameter boundary conditions.
    // ParamList  is not used.
    procedure GetCellValues(ValueTimeList: TList; ParamList: TStringList;
      AModel: TBaseModel; Writer: TObject); override;
    function Used: boolean; override;
    function NonParameterColumns: integer; override;
    { TODO -cFMP4 : override ValueDescription in each descendent}
    class function ValueDescription: string; virtual; abstract;
    class function DefaultBoundaryMethod(
      FormulaIndex: integer): TPestParamMethod; override;
    { TODO -cFMP4 : override InvalidateDisplay in each descendent}
    // be sure to overide this
//    procedure InvalidateDisplay; override;
    function IsSame(FmpBoundary: TFmp4LandUseBoundary): Boolean;
  published
    property PestValueFormula: string read GetPestValueFormula
      write SetPestValueFormula;
    property PestValueMethod: TPestParamMethod read FPestValueMethod
      write SetPestValueMethod;
  end;

implementation

uses RbwParser, ScreenObjectUnit, PhastModelUnit, ModflowTimeUnit,
  ModflowTransientListParameterUnit, frmGoPhastUnit, TempFiles,
  AbstractGridUnit, ModflowPackageSelectionUnit;

//const
//  Fmp4Position = 0;

function LandUseCount(Model: TCustomModel): Integer;
begin
  Assert(Model <> nil);
  if Model.ModflowPackages.FarmLandUse.LandUseOption = luoMultiple then
  begin
    result := Model.FmpCrops.Count;
  end
  else
  begin
    result := 1;
  end;
end;

function LandUseName(Model: TCustomModel; LanduseIndex: Integer): String;
begin
  Assert(Model <> nil);
  if Model.ModflowPackages.FarmLandUse.LandUseOption = luoMultiple then
  begin
    result := Model.FmpCrops[LanduseIndex].CropName;
  end
  else
  begin
    result := 'Land_Use';
  end;
end;

{ TFmp4LandUseItem }

procedure TFmp4LandUseItem.Assign(Source: TPersistent);
begin
  // if Assign is updated, update IsSame too.
  if Source is TFmp4LandUseItem then
  begin
    Fmp4LandUseValues := TFmp4LandUseItem(Source).Fmp4LandUseValues;
  end;
  inherited;
end;

procedure TFmp4LandUseItem.AssignObserverEvents(Collection: TCollection);
var
  ParentCollection: TFmp4LandUseCollection;
  FmpObserver: TObserver;
  LandUseIndex: Integer;
begin
  ParentCollection := Collection as TFmp4LandUseCollection;
  for LandUseIndex := 0 to Fmp4LandUseValues.Count - 1 do
  begin
    Fmp4LandUseValues[LandUseIndex].Observer.OnUpToDateSet
      := ParentCollection.InvalidateLandUseValues;
  end;
end;

function TFmp4LandUseItem.BoundaryFormulaCount: integer;
begin
  result := 1;
  if Fmp4LandUseValues <> nil then
  begin
    if (Model <> nil) then
    begin
      Fmp4LandUseValues.Count := LandUseCount(Model as TCustomModel);
      result := Fmp4LandUseValues.Count;
    end;
  end;
end;

constructor TFmp4LandUseItem.Create(Collection: TCollection);
var
  LandUseCol: TFmp4LandUseCollection;
begin
  LandUseCol := Collection as TFmp4LandUseCollection;
  FFmp4LandUseValues := TLandUseStringCollection.Create(Model, ScreenObject,
    LandUseCol);
  inherited;
end;

procedure TFmp4LandUseItem.CreateFormulaObjects;
begin
  inherited;
//  FFmp4LandUseValue := CreateFormulaObject(dsoTop);
end;

destructor TFmp4LandUseItem.Destroy;
var
  Index: Integer;
begin
  for Index := 0 to FFmp4LandUseValues.Count - 1 do
  begin
    FFmp4LandUseValues[Index].Value := '0';
  end;
  FFmp4LandUseValues.Free;
  inherited;
end;

function TFmp4LandUseItem.GetBoundaryFormula(Index: integer): string;
var
  Item: TLandUseStringValueItem;
begin
  inherited;
  while Index >= Fmp4LandUseValues.Count do
  begin
    Fmp4LandUseValues.Add;
  end;
  Item := Fmp4LandUseValues[Index];
  result := Item.Value;
end;

procedure TFmp4LandUseItem.GetPropertyObserver(Sender: TObject; List: TList);
var
  LandUseIndex: Integer;
  Item: TLandUseStringValueItem;
begin
  for LandUseIndex := 0 to Fmp4LandUseValues.Count - 1 do
  begin
    Item := Fmp4LandUseValues.Items[LandUseIndex];
    if Item.ValueObject = Sender then
    begin
      List.Add(Item.Observer);
    end;
  end;

end;

//function TFmp4LandUseItem.GetFmp4LandUseValues: TLandUseStringCollection;
//begin
//  Result := FFmp4LandUseValue.Formula;
//  ResetItemObserver(Fmp4Position);
//end;

function TFmp4LandUseItem.IsSame(AnotherItem: TOrderedItem): boolean;
var
  Item: TFmp4LandUseItem;
begin
  result := (AnotherItem is TFmp4LandUseItem) and inherited IsSame(AnotherItem);
  if result then
  begin
    Item := TFmp4LandUseItem(AnotherItem);
    result := Fmp4LandUseValues.IsSame(Item.Fmp4LandUseValues)
//    result := (Item.Fmp4LandUseValue = Fmp4LandUseValue)
  end;
end;

procedure TFmp4LandUseItem.RemoveFormulaObjects;
begin
//  frmGoPhast.PhastModel.FormulaManager.Remove(FFmp4LandUseValue,
//    GlobalRemoveModflowBoundaryItemSubscription,
//    GlobalRestoreModflowBoundaryItemSubscription, self);
end;

procedure TFmp4LandUseItem.SetBoundaryFormula(Index: integer; const Value: string);
var
  Item: TLandUseStringValueItem;
begin
  while Index >= Fmp4LandUseValues.Count do
  begin
    Fmp4LandUseValues.Add;
  end;
  Item := Fmp4LandUseValues[Index];
  Item.Value := Value;
end;

procedure TFmp4LandUseItem.SetFmp4LandUseValues(
  const Value: TLandUseStringCollection);
begin
  FFmp4LandUseValues.Assign(Value);
end;

//procedure TFmp4LandUseItem.SetFmp4LandUseValues(const Value: TLandUseStringCollection);
//begin
//  UpdateFormulaBlocks(Value, Fmp4Position, FFmp4LandUseValue);
//end;

{ TFmp4LandUseCollection }

procedure TFmp4LandUseCollection.AddSpecificBoundary(AModel: TBaseModel);
begin
  AddBoundary(TFmp4LandUseStorage.Create(AModel));
end;

procedure TFmp4LandUseCollection.AssignArrayCellValues(DataSets: TList;
  ItemIndex: Integer; AModel: TBaseModel; PestSeries: TStringList;
  PestMethods: TPestMethodList;
  PestItemNames, TimeSeriesNames: TStringListObjectList);
var
  Fmp4LandUseArray: TDataArray;
  Boundary: TFmp4LandUseStorage;
  LayerIndex: Integer;
  RowIndex: Integer;
  ColIndex: Integer;
  BoundaryIndex: Integer;
  LocalModel: TCustomModel;
  LayerMin: Integer;
  RowMin: Integer;
  ColMin: Integer;
  LayerMax: Integer;
  RowMax: Integer;
  ColMax: Integer;
begin
{
  LocalModel := AModel as TCustomModel;
  BoundaryIndex := 0;
  Fmp4LandUseArray := DataSets[Fmp4Position];
  Boundary := Boundaries[ItemIndex, AModel] as TFmp4LandUseStorage;
  Fmp4LandUseArray.GetMinMaxStoredLimits(LayerMin, RowMin, ColMin,
    LayerMax, RowMax, ColMax);
  if LayerMin >= 0 then
  begin
    for LayerIndex := LayerMin to LayerMax do
    begin
      if LocalModel.IsLayerSimulated(LayerIndex) then
      begin
        for RowIndex := RowMin to RowMax do
        begin
          for ColIndex := ColMin to ColMax do
          begin
            if Fmp4LandUseArray.IsValue[LayerIndex, RowIndex, ColIndex] then
            begin
              with Boundary.Fmp4LandUseArray[BoundaryIndex] do
              begin
                Cell.Layer := LayerIndex;
                Cell.Row := RowIndex;
                Cell.Column := ColIndex;
//                Cell.Section := Sections[LayerIndex, RowIndex, ColIndex];
                Fmp4LandUseValue := Fmp4LandUseArray.
                  RealData[LayerIndex, RowIndex, ColIndex];
                Fmp4ValueAnnotation := Fmp4LandUseArray.
                  Annotation[LayerIndex, RowIndex, ColIndex];
              end;
              Inc(BoundaryIndex);
            end;
          end;
        end;
      end;
    end;
  end;
  Fmp4LandUseArray.CacheData;
  Boundary.CacheData;
  }
end;

procedure TFmp4LandUseCollection.InitializeTimeLists(ListOfTimeLists: TList;
  AModel: TBaseModel; PestSeries: TStringList; PestMethods: TPestMethodList;
  PestItemNames, TimeSeriesNames: TStringListObjectList; Writer: TObject);
var
  TimeIndex: Integer;
  BoundaryValues: TBoundaryValueArray;
  Index: Integer;
  Item: TFmp4LandUseItem;
  ScreenObject: TScreenObject;
  ALink: TFmp4LandUseTimeListLink;
  Fmp4LandUseValueData: TModflowTimeList;
  DataArrayIndex: Integer;
  DataArray: TTransientRealSparseDataSet;
  Grid: TCustomModelGrid;
  RowIndex: Integer;
  ColIndex: Integer;
  LayerIndex: Integer;
  ShouldRemove: Boolean;
begin
{
  ScreenObject := BoundaryGroup.ScreenObject as TScreenObject;
  SetLength(BoundaryValues, Count);
  for Index := 0 to Count - 1 do
  begin
    Item := Items[Index] as TFmp4LandUseItem;
    BoundaryValues[Index].Time := Item.StartTime;
    BoundaryValues[Index].Formula := Item.Fmp4LandUseValue;
  end;
  ALink := TimeListLink.GetLink(AModel) as TFmp4LandUseTimeListLink;
  Fmp4LandUseValueData := ALink.FFmp4LandUseValueData;
  Fmp4LandUseValueData.Initialize(BoundaryValues, ScreenObject, lctUse);
  Assert(Fmp4LandUseValueData.Count = Count);

  if PackageAssignmentMethod(AModel) = umAdd then
  begin
    Grid := (AModel as TCustomModel).Grid;
    for DataArrayIndex := 0 to Fmp4LandUseValueData.Count - 1 do
    begin
      DataArray := Fmp4LandUseValueData[DataArrayIndex] as TTransientRealSparseDataSet;
      for RowIndex := 0 to Grid.RowCount - 1 do
      begin
        for ColIndex := 0 to Grid.ColumnCount - 1 do
        begin
          ShouldRemove := False;
          for LayerIndex := Grid.LayerCount -1 downto 0 do
          begin
            if ShouldRemove then
            begin
              DataArray.RemoveValue(LayerIndex, RowIndex, ColIndex);
            end
            else
            begin
              ShouldRemove := DataArray.IsValue[LayerIndex, RowIndex, ColIndex];
            end;
          end;
        end;
      end;
    end;
  end;

  ClearBoundaries(AModel);
  SetBoundaryCapacity(Fmp4LandUseValueData.Count, AModel);
  for TimeIndex := 0 to Fmp4LandUseValueData.Count - 1 do
  begin
    AddBoundary(TFmp4LandUseStorage.Create(AModel));
  end;
  ListOfTimeLists.Add(Fmp4LandUseValueData);
  }
end;

procedure TFmp4LandUseCollection.InvalidateLandUseValues(Sender: TObject);
var
  Index: Integer;
  TimeList: TModflowTimeList;
  PhastModel: TPhastModel;
  Link: TFmp4LandUseTimeListLink;
  ChildIndex: Integer;
  ChildModel: TChildModel;
begin
  if not (Sender as TObserver).UpToDate then
  begin
    PhastModel := frmGoPhast.PhastModel;
    if PhastModel.Clearing then
    begin
      Exit;
    end;
    Link := TimeListLink.GetLink(PhastModel) as TFmp4LandUseTimeListLink;
    for Index := 0 to Link.FLandUseList.Count - 1 do
    begin
      TimeList := Link.FLandUseList[Index];
      TimeList.Invalidate;
    end;
    for ChildIndex := 0 to PhastModel.ChildModels.Count - 1 do
    begin
      ChildModel := PhastModel.ChildModels[ChildIndex].ChildModel;
      if ChildModel <> nil then
      begin
        Link := TimeListLink.GetLink(ChildModel) as TFmp4LandUseTimeListLink;
        for Index := 0 to Link.FLandUseList.Count - 1 do
        begin
          TimeList := Link.FLandUseList[Index];
          TimeList.Invalidate;
        end;
      end;
    end;
  end;
end;

//procedure TFmp4LandUseCollection.InvalidateFmp4LandUseData(Sender: TObject);
//var
//  PhastModel: TPhastModel;
//  Link: TFmp4LandUseTimeListLink;
//  ChildIndex: Integer;
//  ChildModel: TChildModel;
//begin
//  if not (Sender as TObserver).UpToDate then
//  begin
//    PhastModel := frmGoPhast.PhastModel;
//    if PhastModel.Clearing then
//    begin
//      Exit;
//    end;
//    Link := TimeListLink.GetLink(PhastModel) as TFmp4LandUseTimeListLink;
//    Link.FFmp4LandUseValueData.Invalidate;
//    for ChildIndex := 0 to PhastModel.ChildModels.Count - 1 do
//    begin
//      ChildModel := PhastModel.ChildModels[ChildIndex].ChildModel;
//      if ChildModel <> nil then
//      begin
//        Link := TimeListLink.GetLink(ChildModel) as TFmp4LandUseTimeListLink;
//        Link.FFmp4LandUseValueData.Invalidate;
//      end;
//    end;
//  end;
//end;

class function TFmp4LandUseCollection.ItemClass: TBoundaryItemClass;
begin
  result := TFmp4LandUseItem;
end;

function TFmp4LandUseCollection.PackageAssignmentMethod(
  AModel: TBaseModel): TUpdateMethod;
begin
  result := umAssign;
end;

procedure TFmp4LandUseCollection.SetBoundaryStartAndEndTime(BoundaryCount: Integer;
  Item: TCustomModflowBoundaryItem; ItemIndex: Integer; AModel: TBaseModel);
begin
  SetLength((Boundaries[ItemIndex, AModel] as TFmp4LandUseStorage).FFmp4LandUseArray,
    BoundaryCount);
  inherited;
end;


{ TFmp4LandUse_Cell }

procedure TFmp4LandUse_Cell.Cache(Comp: TCompressionStream; Strings: TStringList);
begin
  inherited;
  Values.Cache(Comp, Strings);
  WriteCompInt(Comp, StressPeriod);
end;

function TFmp4LandUse_Cell.GetColumn: integer;
begin
  result := Values.Cell.Column;
end;

function TFmp4LandUse_Cell.GetIntegerAnnotation(Index: integer; AModel: TBaseModel): string;
begin
  result := '';
  Assert(False);
end;

function TFmp4LandUse_Cell.GetIntegerValue(Index: integer; AModel: TBaseModel): integer;
begin
{
  result := 0;
  case Index of
    Fmp4Position: result := (AModel as TCustomModel).
      DataSetLayerToModflowLayer(Layer);
    else Assert(False);
  end;
  }
end;

function TFmp4LandUse_Cell.GetLayer: integer;
begin
  result := Values.Cell.Layer;
end;

function TFmp4LandUse_Cell.GetRealAnnotation(Index: integer; AModel: TBaseModel): string;
begin
{
  result := '';
  case Index of
    Fmp4Position: result := Fmp4ValueAnnotation;
    else Assert(False);
  end;
  }
end;

function TFmp4LandUse_Cell.GetRealValue(Index: integer; AModel: TBaseModel): double;
begin
{
  result := 0;
  case Index of
    Fmp4Position: result := Fmp4LandUseValue;
    else Assert(False);
  end;
  }
end;

function TFmp4LandUse_Cell.GetFmp4LandUseValue: double;
begin
{
  result := Values.Fmp4LandUseValue;
  }
end;

function TFmp4LandUse_Cell.GetFmp4LandUseAnnotation: string;
begin
{
  result := Values.Fmp4ValueAnnotation;
  }
end;

function TFmp4LandUse_Cell.GetRow: integer;
begin
  result := Values.Cell.Row;
end;

function TFmp4LandUse_Cell.GetSection: integer;
begin
  result := Values.Cell.Section;
end;

procedure TFmp4LandUse_Cell.RecordStrings(Strings: TStringList);
begin
  inherited;
  Values.RecordStrings(Strings);
end;

procedure TFmp4LandUse_Cell.Restore(Decomp: TDecompressionStream; Annotations: TStringList);
begin
  inherited;
  Values.Restore(Decomp, Annotations);
  StressPeriod := ReadCompInt(Decomp);
end;

procedure TFmp4LandUse_Cell.SetColumn(const Value: integer);
begin
  FValues.Cell.Column := Value;
end;

procedure TFmp4LandUse_Cell.SetLayer(const Value: integer);
begin
  FValues.Cell.Layer := Value;
end;

procedure TFmp4LandUse_Cell.SetRow(const Value: integer);
begin
  FValues.Cell.Row := Value;
end;

{ TFmp4LandUseBoundary }

procedure TFmp4LandUseBoundary.Assign(Source: TPersistent);
var
  FmpSource: TFmp4LandUseBoundary;
begin
  if Source is TFmp4LandUseBoundary then
  begin
    FmpSource := TFmp4LandUseBoundary(Source);
    PestValueFormula := FmpSource.PestValueFormula;
    PestValueMethod := FmpSource.PestValueMethod;
  end;
  inherited;

end;

procedure TFmp4LandUseBoundary.AssignCells(BoundaryStorage: TCustomBoundaryStorage;
  ValueTimeList: TList; AModel: TBaseModel);
var
  Cell: TFmp4LandUse_Cell;
  BoundaryValues: TFmp4LandUseRecord;
  BoundaryIndex: Integer;
  StressPeriod: TModflowStressPeriod;
  TimeIndex: Integer;
  Cells: TValueCellList;
  LocalBoundaryStorage: TFmp4LandUseStorage;
  LocalModel: TCustomModel;
begin
  LocalModel := AModel as TCustomModel;
  LocalBoundaryStorage := BoundaryStorage as TFmp4LandUseStorage;
  for TimeIndex := 0 to
    LocalModel.ModflowFullStressPeriods.Count - 1 do
  begin
    if TimeIndex < ValueTimeList.Count then
    begin
      Cells := ValueTimeList[TimeIndex];
    end
    else
    begin
      Cells := TValueCellList.Create(TFmp4LandUse_Cell);
      ValueTimeList.Add(Cells);
    end;
    StressPeriod := LocalModel.ModflowFullStressPeriods[TimeIndex];
    // Check if the stress period is completely enclosed within the times
    // of the LocalBoundaryStorage;
    if (StressPeriod.StartTime + LocalModel.SP_Epsilon >= LocalBoundaryStorage.StartingTime)
      and (StressPeriod.EndTime - LocalModel.SP_Epsilon <= LocalBoundaryStorage.EndingTime) then
    begin
      if Cells.Capacity < Cells.Count + Length(LocalBoundaryStorage.Fmp4LandUseArray) then
      begin
        Cells.Capacity := Cells.Count + Length(LocalBoundaryStorage.Fmp4LandUseArray)
      end;
      for BoundaryIndex := 0 to Length(LocalBoundaryStorage.Fmp4LandUseArray) - 1 do
      begin
        BoundaryValues := LocalBoundaryStorage.Fmp4LandUseArray[BoundaryIndex];
        Cell := TFmp4LandUse_Cell.Create;
        Cells.Add(Cell);
        Cell.StressPeriod := TimeIndex;
        Cell.Values := BoundaryValues;
        Cell.ScreenObject := ScreenObject;
      end;
      Cells.Cache;
    end;
  end;
  LocalBoundaryStorage.CacheData;
end;

function TFmp4LandUseBoundary.BoundaryObserverPrefix: string;
begin
  result := ValueDescription + '_';
end;

constructor TFmp4LandUseBoundary.Create(Model: TBaseModel; ScreenObject: TObject);
begin
  inherited;
  CreateFormulaObjects;
  CreateBoundaryObserver;
  CreateObservers;

  PestValueFormula := '';
  PestValueMethod := DefaultBoundaryMethod(0);

end;

procedure TFmp4LandUseBoundary.CreateFormulaObjects;
begin
  FPestValueFormula := CreateFormulaObjectBlocks(dsoTop);
end;

procedure TFmp4LandUseBoundary.CreateObservers;
begin
  if ScreenObject <> nil then
  begin
    FObserverList.Add(PestValueObserver);
  end;
end;

class function TFmp4LandUseBoundary.DefaultBoundaryMethod(
  FormulaIndex: integer): TPestParamMethod;
begin
  result := inherited;
end;

destructor TFmp4LandUseBoundary.Destroy;
begin
  PestValueFormula := '';
  RemoveFormulaObjects;

  inherited;
end;

procedure TFmp4LandUseBoundary.GetCellValues(ValueTimeList: TList;
  ParamList: TStringList; AModel: TBaseModel; Writer: TObject);
var
  ValueIndex: Integer;
  BoundaryStorage: TFmp4LandUseStorage;
begin
  EvaluateArrayBoundaries(AModel, Writer);
  for ValueIndex := 0 to Values.Count - 1 do
  begin
    if ValueIndex < Values.BoundaryCount[AModel] then
    begin
      BoundaryStorage := Values.Boundaries[ValueIndex, AModel] as TFmp4LandUseStorage;
      AssignCells(BoundaryStorage, ValueTimeList, AModel);
    end;
  end;
  ClearBoundaries(AModel);
end;

function TFmp4LandUseBoundary.GetPestBoundaryFormula(FormulaIndex: integer): string;
begin
{
  case FormulaIndex of
    Fmp4Position:
      begin
        result := PestValueFormula;
      end;
    else
      begin
        Assert(False);
      end;
  end;
  }
end;

function TFmp4LandUseBoundary.GetPestBoundaryMethod(
  FormulaIndex: integer): TPestParamMethod;
begin
{
  case FormulaIndex of
    Fmp4Position:
      begin
        result := FPestValueMethod;
      end;
    else
      begin
        result := DefaultBoundaryMethod(FormulaIndex);
        Assert(False);
      end;
  end;
  }
end;

function TFmp4LandUseBoundary.GetPestValueFormula: string;
begin
{
  Result := FPestValueFormula.Formula;
  if ScreenObject <> nil then
  begin
    ResetBoundaryObserver(Fmp4Position);
  end;
  }
end;

function TFmp4LandUseBoundary.GetPestValueObserver: TObserver;
begin
  if FPestValueObserver = nil then
  begin
    CreateObserver(ValueDescription + '_Pest_', FPestValueObserver, nil);
    FPestValueObserver.OnUpToDateSet := InvalidateData;
  end;
  result := FPestValueObserver;
end;

function TFmp4LandUseBoundary.GetUsedObserver: TObserver;