unit ModflowRivUnit;

interface

uses Windows, ZLib, SysUtils, Classes, Contnrs, ModflowBoundaryUnit,
  OrderedCollectionUnit, DataSetUnit, ModflowCellUnit, FormulaManagerUnit,
  SubscriptionUnit, SparseDataSets, RbwParser, GoPhastTypes,
  ModflowTransientListParameterUnit;

type
  TRivRecord = record
    Cell: TCellLocation;
    // With MODFLOW 6, Conductance includes the effect of the parameter,
    // if any. In a template, the appropriate formula would be
    // the parameter name times the conductance divided by the parameter
    // value.
    // For example,
    //
    // if ConductanceParameterName <> '' then
    // begin
    //   WriteString(ConductanceParameterName);
    //   WriteString('*');
    //   WriteFloat(Conductance/ConductanceParameterValue);
    // end;
    Conductance: double;
    RiverStage: double;
    RiverBottom: double;
    StartingTime: double;
    EndingTime: double;
    ConductanceAnnotation: string;
    RiverStageAnnotation: string;
    RiverBottomAnnotation: string;

    ConductancePest: string;
    RiverStagePest: string;
    RiverBottomPest: string;

    ConductancePestSeriesName: string;
    RiverStagePestSeriesName: string;
    RiverBottomPestSeriesName: string;

    ConductancePestSeriesMethod: TPestParamMethod;
    RiverStagePestSeriesMethod: TPestParamMethod;
    RiverBottomPestSeriesMethod: TPestParamMethod;

    TimeSeriesName: string;
    MvrUsed: Boolean;
    MvrIndex: Integer;
    ConductanceParameterName: string;
    ConductanceParameterValue: double;
    procedure Cache(Comp: TCompressionStream; Strings: TStringList);
    procedure Restore(Decomp: TDecompressionStream; Annotations: TStringList);
    procedure RecordStrings(Strings: TStringList);
  end;

  TRivArray = array of TRivRecord;

  TRivStorage = class(TCustomBoundaryStorage)
  private
    FRivArray: TRivArray;
    function GetRivArray: TRivArray;
  protected
    procedure Restore(DecompressionStream: TDecompressionStream; Annotations: TStringList); override;
    procedure Store(Compressor: TCompressionStream); override;
    procedure Clear; override;
  public
    property RivArray: TRivArray read GetRivArray;
  end;

  // @name represents a MODFLOW River boundary for one time interval.
  // @name is stored by @link(TRivCollection).
  TRivItem = class(TCustomModflowBoundaryItem)
  private
    // See @link(RiverBottom).
    FRiverBottom: TFormulaObject;
    // See @link(RiverStage).
    FRiverStage: TFormulaObject;
    // See @link(Conductance).
    FConductance: TFormulaObject;
    // See @link(RiverBottom).
    procedure SetRiverBottom(const Value: string);
    // See @link(RiverStage).
    procedure SetRiverStage(const Value: string);
    // See @link(Conductance).
    procedure SetConductance(const Value: string);
    function GetConductance: string;
    function GetRiverBottom: string;
    function GetRiverStage: string;
  protected
    procedure AssignObserverEvents(Collection: TCollection); override;
    procedure CreateFormulaObjects; override;
    procedure GetPropertyObserver(Sender: TObject; List: TList); override;
    procedure RemoveFormulaObjects; override;
    // See @link(BoundaryFormula).
    function GetBoundaryFormula(Index: integer): string; override;
    // See @link(BoundaryFormula).
    procedure SetBoundaryFormula(Index: integer; const Value: string); override;
    // @name checks whether AnotherItem is the same as the current @classname.
    function IsSame(AnotherItem: TOrderedItem): boolean; override;
    procedure InvalidateModel; override;
    function BoundaryFormulaCount: integer; override;
    function GetConductanceIndex: Integer; override;
  public
    // @name copies Source to this @classname.
    procedure Assign(Source: TPersistent);override;
    Destructor Destroy; override;
  published
    // @name is the formula used to set the river stage
    // of this boundary.
    property RiverBottom: string read GetRiverBottom write SetRiverBottom;
    // @name is the formula used to set the river stage
    // of this boundary.
    property RiverStage: string read GetRiverStage write SetRiverStage;
    // @name is the formula used to set the conductance
    // or the conductance multiplier of this boundary.
    property Conductance: string read GetConductance write SetConductance;
  end;

  TRivTimeListLink = class(TTimeListsModelLink)
  private
    // @name is used to compute the River Bottoms for a series of
    // River Boundaries over a series of time intervals.
    FRiverBottomData: TModflowTimeList;
    // @name is used to compute the River Stages for a series of
    // River Boundaries over a series of time intervals.
    FRiverStageData: TModflowTimeList;
    // @name is used to compute the Conductances for a series of
    // River Boundaries over a series of time intervals.
    FConductanceData: TModflowTimeList;
  protected
    procedure CreateTimeLists; override;
  public
    Destructor Destroy; override;
  end;

  // @name represents MODFLOW River boundaries
  // for a series of time intervals.
  TRivCollection = class(TCustomMF_ListBoundColl)
  private
    procedure InvalidateStageData(Sender: TObject);
    procedure InvalidateConductanceData(Sender: TObject);
    procedure InvalidateRiverBottomData(Sender: TObject);
  protected
    function GetTimeListLinkClass: TTimeListsModelLinkClass; override;
    procedure AssignListCellLocation(BoundaryStorage: TCustomBoundaryStorage;
      ACellList: TObject); override;
    procedure AssignCellList(Expression: TExpression; ACellList: TObject;
      BoundaryStorage: TCustomBoundaryStorage; BoundaryFunctionIndex: integer;
      Variables, DataSets: TList; AModel: TBaseModel; AScreenObject: TObject;
      PestName: string; PestSeriesName: string;
      PestSeriesMethod: TPestParamMethod); override;
    function AdjustedFormula(FormulaIndex, ItemIndex: integer): string;
      override;
    procedure AddSpecificBoundary(AModel: TBaseModel); override;
    procedure TestIfObservationsPresent(var EndOfLastStressPeriod: Double;
      var StartOfFirstStressPeriod: Double;
      var ObservationsPresent: Boolean); override;

    // See @link(TCustomNonSpatialBoundColl.ItemClass
    // TCustomNonSpatialBoundColl.ItemClass)
    class function ItemClass: TBoundaryItemClass; override;
    // @name calls inherited @name and then sets the length of
    // the @link(TRivStorage.RivArray) at ItemIndex in
    // @link(TCustomMF_BoundColl.Boundaries) to BoundaryCount.
    // @SeeAlso(TCustomMF_BoundColl.SetBoundaryStartAndEndTime
    // TCustomMF_BoundColl.SetBoundaryStartAndEndTime)
    procedure SetBoundaryStartAndEndTime(BoundaryCount: Integer;
      Item: TCustomModflowBoundaryItem; ItemIndex: Integer; AModel: TBaseModel); override;
  end;

  // Each @name stores a @link(TRivCollection).
  // @classname is stored by @link(TModflowParameters).
  TRivParamItem = class(TModflowParamItem)
  protected
    class function BoundaryClass: TMF_BoundCollClass; override;
  end;

  TRiv_Cell = class(TValueCell)
  private
    Values: TRivRecord;
    StressPeriod: integer;
    function GetRiverStage: double;
    function GetConductance: double;
    function GetRiverBottom: double;
    function GetConductanceAnnotation: string;
    function GetRiverBottomAnnotation: string;
    function GetRiverStageAnnotation: string;
    function GetTimeSeriesName: string;
    function GetMvrUsed: Boolean;
    function GetMvrIndex: Integer;
    function GetConductanceParameterName: string;
    function GetConductanceParameterValue: double;
    function GetConductancePest: string;
    function GetConductancePestSeriesMethod: TPestParamMethod;
    function GetConductancePestSeriesName: string;
    function GetRiverBottomPest: string;
    function GetRiverBottomPestSeriesMethod: TPestParamMethod;
    function GetRiverBottomPestSeriesName: string;
    function GetRiverStagePest: string;
    function GetRiverStagePestSeriesMethod: TPestParamMethod;
    function GetRiverStagePestSeriesName: string;
  protected
    function GetColumn: integer; override;
    function GetLayer: integer; override;
    function GetRow: integer; override;
    procedure SetColumn(const Value: integer); override;
    procedure SetLayer(const Value: integer); override;
    procedure SetRow(const Value: integer); override;
    function GetIntegerValue(Index: integer; AModel: TBaseModel): integer; override;
    function GetRealValue(Index: integer; AModel: TBaseModel): double; override;
    function GetRealAnnotation(Index: integer; AModel: TBaseModel): string; override;
    function GetIntegerAnnotation(Index: integer; AModel: TBaseModel): string; override;
    procedure Cache(Comp: TCompressionStream; Strings: TStringList); override;
    procedure Restore(Decomp: TDecompressionStream; Annotations: TStringList); override;
    function GetSection: integer; override;
    procedure RecordStrings(Strings: TStringList); override;
  public
    // With MODFLOW 6, Conductance includes the effect of the parameter,
    // if any. In a template, the appropriate formula would be
    // the parameter name times the conductance divided by the parameter
    // value.
    // For example,
    //
    // if ConductanceParameterName <> '' then
    // begin
    //   WriteString(ConductanceParameterName);
    //   WriteString('*');
    //   WriteFloat(Conductance/ConductanceParameterValue);
    // end;
    property Conductance: double read GetConductance;
    property RiverBottom: double read GetRiverBottom;
    property RiverStage: double read GetRiverStage;
    property ConductanceAnnotation: string read GetConductanceAnnotation;
    property RiverBottomAnnotation: string read GetRiverBottomAnnotation;
    property RiverStageAnnotation: string read GetRiverStageAnnotation;
    property TimeSeriesName: string read GetTimeSeriesName;
    property MvrUsed: Boolean read GetMvrUsed;
    property MvrIndex: Integer read GetMvrIndex;
    function IsIdentical(AnotherCell: TValueCell): boolean; override;
    property ConductanceParameterName: string read GetConductanceParameterName;
    property ConductanceParameterValue: double read GetConductanceParameterValue;
    // PEST properties
    property ConductancePest: string read GetConductancePest;
    property RiverStagePest: string read GetRiverStagePest;
    property RiverBottomPest: string read GetRiverBottomPest;

    property ConductancePestSeries: string read GetConductancePestSeriesName;
    property RiverStagePestSeries: string read GetRiverStagePestSeriesName;
    property RiverBottomPestSeries: string read GetRiverBottomPestSeriesName;

    property ConductancePestSeriesMethod: TPestParamMethod read GetConductancePestSeriesMethod;
    property RiverStagePestSeriesMethod: TPestParamMethod read GetRiverStagePestSeriesMethod;
    property RiverBottomPestSeriesMethod: TPestParamMethod read GetRiverBottomPestSeriesMethod;

  end;

  // @name represents the MODFLOW River boundaries associated with
  // a single @link(TScreenObject).
  //
  // @link(TSpecificModflowBoundary.FormulaInterpretation) determines whether the @Link(TRivItem.Conductance
  // TRivItem.Conductance) formulas represent
  // @unorderedlist(
  //   @item(fiSpecific - Conductance / the length or area of
  //     intersection between the @link(TScreenObject) and grid cell.)
  //   @item(fiTotal - Conductance.)
  // )
  // @seealso(TRivCollection)
  TRivBoundary = class(TSpecificModflowBoundary)
  private
    FCurrentParameter: TModflowTransientListParameter;
    FPestConductanceMethod: TPestParamMethod;
    FPestRiverBottomMethod: TPestParamMethod;
    FPestRiverStageMethod: TPestParamMethod;

    FPestCondFormula: TFormulaObject;
    FPestRiverStageFormula: TFormulaObject;
    FPestRiverBottomFormula: TFormulaObject;
    FPestConductanceObserver: TObserver;
    FPestRiverBottomObserver: TObserver;
    FUsedObserver: TObserver;
    FPestRiverStageObserver: TObserver;
//    FInterp: TMf6InterpolationMethods;
    procedure TestIfObservationsPresent(var EndOfLastStressPeriod: Double;
      var StartOfFirstStressPeriod: Double;
      var ObservationsPresent: Boolean);
    function GetPestConductanceFormula: string;
    function GetPestRiverBottomFormula: string;
    function GetPestRiverStageFormula: string;
    procedure SetPestConductanceFormula(const Value: string);
    procedure SetPestConductanceMethod(const Value: TPestParamMethod);
    procedure SetPestRiverBottomFormula(const Value: string);
    procedure SetPestRiverBottomMethod(const Value: TPestParamMethod);
    procedure SetPestRiverStageFormula(const Value: string);
    procedure SetPestRiverStageMethod(const Value: TPestParamMethod);
    function GetPestConductanceObserver: TObserver;
    function GetPestRiverBottomObserver: TObserver;
    function GetPestRiverStageObserver: TObserver;
//    procedure SetInterp(const Value: TMf6InterpolationMethods);
  protected
    // @name fills ValueTimeList with a series of TObjectLists - one for
    // each stress period.  Each such TObjectList is filled with
    // @link(TRiv_Cell)s for that stress period.
    procedure AssignCells(BoundaryStorage: TCustomBoundaryStorage;
      ValueTimeList: TList; AModel: TBaseModel); override;
    // See @link(TModflowBoundary.BoundaryCollectionClass
    // TModflowBoundary.BoundaryCollectionClass).
    class function BoundaryCollectionClass: TMF_BoundCollClass; override;
    // See @link(TModflowParamBoundary.ModflowParamItemClass
    // TModflowParamBoundary.ModflowParamItemClass).
    class function ModflowParamItemClass: TModflowParamItemClass; override;
    function ParameterType: TParameterType; override;

    procedure HandleChangedValue(Observer: TObserver); //override;
    function GetUsedObserver: TObserver; //override;
    procedure GetPropertyObserver(Sender: TObject; List: TList); override;
    procedure CreateFormulaObjects; //override;
    function BoundaryObserverPrefix: string; override;
    procedure CreateObservers; //override;
    property PestRiverStageObserver: TObserver read GetPestRiverStageObserver;
    property PestRiverBottomObserver: TObserver read GetPestRiverBottomObserver;
    property PestConductanceObserver: TObserver read GetPestConductanceObserver;
    function GetPestBoundaryFormula(FormulaIndex: integer): string; override;
    procedure SetPestBoundaryFormula(FormulaIndex: integer;
      const Value: string); override;
    function GetPestBoundaryMethod(FormulaIndex: integer): TPestParamMethod; override;
    procedure SetPestBoundaryMethod(FormulaIndex: integer;
      const Value: TPestParamMethod); override;
  public
    Constructor Create(Model: TBaseModel; ScreenObject: TObject);
    destructor Destroy; override;
    procedure Assign(Source: TPersistent);override;
    // @name fills ValueTimeList via a call to AssignCells for each
    // link  @link(TRivStorage) in
    // @link(TCustomMF_BoundColl.Boundaries Values.Boundaries);
    // Those represent non-parameter boundary conditions.
    // @name fills ParamList with the names of the
    // MODFLOW RIV parameters that are in use.
    // The Objects property of ParamList has TObjectLists
    // Each such TObjectList is filled via a call to AssignCells
    // with each @link(TRivStorage) in @link(TCustomMF_BoundColl.Boundaries
    // Param.Param.Boundaries)
    // Those represent parameter boundary conditions.
    procedure GetCellValues(ValueTimeList: TList; ParamList: TStringList;
      AModel: TBaseModel); override;
    procedure InvalidateDisplay; override;
    class function DefaultBoundaryMethod(
      FormulaIndex: integer): TPestParamMethod; override;
  published
    property Interp;
    property PestRiverBottomFormula: string read GetPestRiverBottomFormula
      write SetPestRiverBottomFormula
      {$IFNDEF PEST}
      Stored False
      {$ENDIF}
      ;
    property PestRiverStageFormula: string read GetPestRiverStageFormula
      write SetPestRiverStageFormula
      {$IFNDEF PEST}
      Stored False
      {$ENDIF}
      ;
    property PestConductanceFormula: string read GetPestConductanceFormula
      write SetPestConductanceFormula
      {$IFNDEF PEST}
      Stored False
      {$ENDIF}
      ;
    property PestRiverBottomMethod: TPestParamMethod read FPestRiverBottomMethod
      write SetPestRiverBottomMethod
      {$IFNDEF PEST}
      Stored False
      {$ENDIF}
      ;
    property PestRiverStageMethod: TPestParamMethod read FPestRiverStageMethod
      write SetPestRiverStageMethod
      {$IFNDEF PEST}
      Stored False
      {$ENDIF}
      ;
    property PestConductanceMethod: TPestParamMethod
      read FPestConductanceMethod write SetPestConductanceMethod
      {$IFNDEF PEST}
      Stored False
      {$ENDIF}
      ;
  end;

implementation

uses PhastModelUnit, ScreenObjectUnit, ModflowTimeUnit, TempFiles, 
  frmGoPhastUnit, GIS_Functions, ModflowTimeSeriesUnit, ModflowMvrUnit;

const
  StagePosition = 0;
  ConductancePosition = 1;
  BottomPosition = 2;

{ TRivItem }

procedure TRivItem.Assign(Source: TPersistent);
var
  Riv: TRivItem;
begin
  // if Assign is updated, update IsSame too.
  if Source is TRivItem then
  begin
    Riv := TRivItem(Source);
    RiverStage := Riv.RiverStage;
    Conductance := Riv.Conductance;
    RiverBottom := Riv.RiverBottom;
  end;
  inherited;
end;

procedure TRivItem.AssignObserverEvents(Collection: TCollection);
var
  ParentCollection: TRivCollection;
  StageObserver: TObserver;
  ConductanceObserver: TObserver;
  BottomObserver: TObserver;
begin
  ParentCollection := Collection as TRivCollection;
  StageObserver := FObserverList[StagePosition];
  StageObserver.OnUpToDateSet := ParentCollection.InvalidateStageData;
  ConductanceObserver := FObserverList[ConductancePosition];
  ConductanceObserver.OnUpToDateSet := ParentCollection.InvalidateConductanceData;
  BottomObserver := FObserverList[BottomPosition];
  BottomObserver.OnUpToDateSet := ParentCollection.InvalidateRiverBottomData;
end;

function TRivItem.BoundaryFormulaCount: integer;
begin
  result := 3;
end;

procedure TRivItem.CreateFormulaObjects;
begin
  FRiverStage := CreateFormulaObject(dso3D);
  FConductance := CreateFormulaObject(dso3D);
  FRiverBottom := CreateFormulaObject(dso3D);
end;

destructor TRivItem.Destroy;
begin
  RiverBottom := '0';
  RiverStage := '0';
  Conductance := '0';
  inherited;
end;

function TRivItem.GetBoundaryFormula(Index: integer): string;
begin
  case Index of
    StagePosition: result := RiverStage;
    ConductancePosition: result := Conductance;
    BottomPosition: result := RiverBottom;
    else Assert(False);
  end;
end;

function TRivItem.GetConductance: string;
begin
  Result := FConductance.Formula;
  ResetItemObserver(ConductancePosition);
end;

function TRivItem.GetConductanceIndex: Integer;
begin
  result := ConductancePosition;
end;

procedure TRivItem.GetPropertyObserver(Sender: TObject; List: TList);
begin
  if Sender = FRiverStage then
  begin
    List.Add( FObserverList[StagePosition]);
  end;
  if Sender = FConductance then
  begin
    List.Add( FObserverList[ConductancePosition]);
  end;
  if Sender = FRiverBottom then
  begin
    List.Add( FObserverList[BottomPosition]);
  end;
end;

function TRivItem.GetRiverBottom: string;
begin
  Result := FRiverBottom.Formula;
  ResetItemObserver(BottomPosition);
end;

function TRivItem.GetRiverStage: string;
begin
  Result := FRiverStage.Formula;
  ResetItemObserver(StagePosition);
end;

procedure TRivItem.InvalidateModel;
var
  PhastModel: TPhastModel;
begin
  inherited;
  PhastModel := Model as TPhastModel;
  if (PhastModel <> nil)
    and not (csDestroying in PhastModel.ComponentState)
    and not PhastModel.Clearing then
  begin
    PhastModel.InvalidateMfRivConductance(self);
    PhastModel.InvalidateMfRivStage(self);
    PhastModel.InvalidateMfRivBottom(self);
  end;
end;

function TRivItem.IsSame(AnotherItem: TOrderedItem): boolean;
var
  Item: TRivItem;
begin
  result := (AnotherItem is TRivItem) and inherited IsSame(AnotherItem);
  if result then
  begin
    Item := TRivItem(AnotherItem);
    result := (Item.RiverStage = RiverStage)
      and (Item.Conductance = Conductance)
      and (Item.RiverBottom = RiverBottom);
  end;
end;

procedure TRivItem.RemoveFormulaObjects;
begin
  frmGoPhast.PhastModel.FormulaManager.Remove(FRiverBottom,
    GlobalRemoveModflowBoundaryItemSubscription, GlobalRestoreModflowBoundaryItemSubscription, self);
  frmGoPhast.PhastModel.FormulaManager.Remove(FConductance,
    GlobalRemoveModflowBoundaryItemSubscription, GlobalRestoreModflowBoundaryItemSubscription, self);
  frmGoPhast.PhastModel.FormulaManager.Remove(FRiverStage,
    GlobalRemoveModflowBoundaryItemSubscription, GlobalRestoreModflowBoundaryItemSubscription, self);
end;

procedure TRivItem.SetBoundaryFormula(Index: integer; const Value: string);
begin
  inherited;
  case Index of
    StagePosition: RiverStage := Value;
    ConductancePosition: Conductance := Value;
    BottomPosition: RiverBottom := Value;
    else Assert(False);
  end;
end;

procedure TRivItem.SetRiverBottom(const Value: string);
begin
  UpdateFormulaBlocks(Value, BottomPosition, FRiverBottom);
end;

procedure TRivItem.SetRiverStage(const Value: string);
begin
  UpdateFormulaBlocks(Value, StagePosition, FRiverStage);
end;

procedure TRivItem.SetConductance(const Value: string);
begin
  UpdateFormulaBlocks(Value, ConductancePosition, FConductance);
end;

{ TRivCollection }

function TRivCollection.GetTimeListLinkClass: TTimeListsModelLinkClass;
begin
  result := TRivTimeListLink;
end;

procedure TRivCollection.TestIfObservationsPresent(
  var EndOfLastStressPeriod: Double; var StartOfFirstStressPeriod: Double;
  var ObservationsPresent: Boolean);
var
  Boundary: TRivBoundary;
begin
  // If observations exist, the list of cells must
  // be identical in every stress period.
  // To do that, introduce dummy values in BoundaryValues
  // for times that are not defined explicitly.
  // Set their conductances to zero so they have no effect
  // on the model.
  Boundary := BoundaryGroup as TRivBoundary;
  Boundary.TestIfObservationsPresent(EndOfLastStressPeriod,
    StartOfFirstStressPeriod, ObservationsPresent);
end;

procedure TRivCollection.AddSpecificBoundary(AModel: TBaseModel);
begin
  AddBoundary(TRivStorage.Create(AModel));
end;

function TRivCollection.AdjustedFormula(FormulaIndex,
  ItemIndex: integer): string;
var
  Boundary: TRivBoundary;
  ScreenObject: TScreenObject;
  Item: TRivItem;
begin
  Item := Items[ItemIndex] as TRivItem;
  if FormulaIndex = ConductancePosition then
  begin
    Boundary := BoundaryGroup as TRivBoundary;
    ScreenObject := Boundary.ScreenObject as TScreenObject;
    case Boundary.FormulaInterpretation of
      fiSpecific:
        begin
          if ScreenObject.ScreenObjectLength = 0 then
          begin
            result := Item.Conductance;
          end
          else if ScreenObject.Closed then
          begin
            result := '(' + Item.Conductance
              + ') * ' + StrObjectIntersectArea;
          end
          else
          begin
            result := '(' + Item.Conductance
              + ') * ' + StrObjectSectionIntersectLength;
          end;
        end;
      fiDirect:
        begin
          result := Item.Conductance;
        end;
      fiTotal:
        begin
          if ScreenObject.ScreenObjectLength = 0 then
          begin
            result := Item.Conductance;
          end
          else if ScreenObject.Closed then
          begin
            result := '((' + Item.Conductance
              + ') * ' + StrObjectIntersectArea + ') / ' + StrObjectArea;
          end
          else
          begin
            result := '((' + Item.Conductance
              + ') * ' + StrObjectSectionIntersectLength+ ') / ' + StrObjectLength;
          end;
        end;
      else Assert(False);
    end;
  end
  else
  begin
    result := Item.BoundaryFormula[FormulaIndex];
  end;
end;

procedure TRivCollection.AssignCellList(Expression: TExpression;
  ACellList: TObject; BoundaryStorage: TCustomBoundaryStorage;
  BoundaryFunctionIndex: integer; Variables, DataSets: TList;
  AModel: TBaseModel; AScreenObject: TObject; PestName: string;
  PestSeriesName: string; PestSeriesMethod: TPestParamMethod);
var
  RivStorage: TRivStorage;
  CellList: TCellAssignmentList;
  Index: Integer;
  ACell: TCellAssignment;
begin
  Assert(BoundaryFunctionIndex in
    [StagePosition,ConductancePosition, BottomPosition]);
  Assert(Expression <> nil);

  RivStorage := BoundaryStorage as TRivStorage;
  CellList := ACellList as TCellAssignmentList;
  for Index := 0 to CellList.Count - 1 do
  begin
    ACell := CellList[Index];
    UpdateCurrentScreenObject(AScreenObject as TScreenObject);
    UpdateRequiredListData(DataSets, Variables, ACell, AModel);

    Expression.Evaluate;
    with RivStorage.RivArray[Index] do
    begin
      case BoundaryFunctionIndex of
        StagePosition:
          begin
            RiverStage := Expression.DoubleResult;
            RiverStageAnnotation := ACell.Annotation;
            RiverStagePest := PestName;
            RiverStagePestSeriesName := PestSeriesName;
            RiverStagePestSeriesMethod := PestSeriesMethod;
          end;
        ConductancePosition:
          begin
            Conductance := Expression.DoubleResult;
            ConductanceAnnotation := ACell.Annotation;
            ConductancePest := PestName;
            ConductancePestSeriesName := PestSeriesName;
            ConductancePestSeriesMethod := PestSeriesMethod;
          end;
        BottomPosition:
          begin
            RiverBottom := Expression.DoubleResult;
            RiverBottomAnnotation := ACell.Annotation;
            RiverBottomPest := PestName;
            RiverBottomPestSeriesName := PestSeriesName;
            RiverBottomPestSeriesMethod := PestSeriesMethod;
          end;
        else
          Assert(False);
      end;
    end;
  end;
end;

procedure TRivCollection.AssignListCellLocation(
  BoundaryStorage: TCustomBoundaryStorage; ACellList: TObject);
var
  RivStorage: TRivStorage;
  CellList: TCellAssignmentList;
  Index: Integer;
  ACell: TCellAssignment;
begin
  RivStorage := BoundaryStorage as TRivStorage;
  CellList := ACellList as TCellAssignmentList;
  for Index := 0 to CellList.Count - 1 do
  begin
    ACell := CellList[Index];
    if ACell.LgrEdge then
    begin
      Continue;
    end;
    with RivStorage.RivArray[Index] do
    begin
      Cell.Layer := ACell.Layer;
      Cell.Row := ACell.Row;
      Cell.Column := ACell.Column;
      Cell.Section := ACell.Section;
    end;
  end;
end;

procedure TRivCollection.SetBoundaryStartAndEndTime(BoundaryCount: Integer;
  Item: TCustomModflowBoundaryItem; ItemIndex: Integer; AModel: TBaseModel);
begin
  SetLength((Boundaries[ItemIndex, AModel] as TRivStorage).FRivArray, BoundaryCount);
  inherited;
end;

procedure TRivCollection.InvalidateConductanceData(Sender: TObject);
var
  PhastModel: TPhastModel;
  Link: TRivTimeListLink;
  ChildIndex: Integer;
  ChildModel: TChildModel;
begin
  if not (Sender as TObserver).UpToDate then
  begin
    PhastModel := frmGoPhast.PhastModel;
    if PhastModel.Clearing then
    begin
      Exit;
    end;
    Link := TimeListLink.GetLink(PhastModel) as TRivTimeListLink;
    Link.FConductanceData.Invalidate;
    for ChildIndex := 0 to PhastModel.ChildModels.Count - 1 do
    begin
      ChildModel := PhastModel.ChildModels[ChildIndex].ChildModel;
      Link := TimeListLink.GetLink(ChildModel) as TRivTimeListLink;
      Link.FConductanceData.Invalidate;
    end;
  end;
end;

procedure TRivCollection.InvalidateRiverBottomData(Sender: TObject);
var
  PhastModel: TPhastModel;
  Link: TRivTimeListLink;
  ChildIndex: Integer;
  ChildModel: TChildModel;
begin
  if not (Sender as TObserver).UpToDate then
  begin
    PhastModel := frmGoPhast.PhastModel;
    if PhastModel.Clearing then
    begin
      Exit;
    end;
    Link := TimeListLink.GetLink(PhastModel) as TRivTimeListLink;
    Link.FRiverBottomData.Invalidate;
    for ChildIndex := 0 to PhastModel.ChildModels.Count - 1 do
    begin
      ChildModel := PhastModel.ChildModels[ChildIndex].ChildModel;
      Link := TimeListLink.GetLink(ChildModel) as TRivTimeListLink;
      Link.FRiverBottomData.Invalidate;
    end;
  end;
end;

procedure TRivCollection.InvalidateStageData(Sender: TObject);
var
  PhastModel: TPhastModel;
  Link: TRivTimeListLink;
  ChildIndex: Integer;
  ChildModel: TChildModel;
begin
  if not (Sender as TObserver).UpToDate then
  begin
    PhastModel := frmGoPhast.PhastModel;
    if PhastModel.Clearing then
    begin
      Exit;
    end;
    Link := TimeListLink.GetLink(PhastModel) as TRivTimeListLink;
    Link.FRiverStageData.Invalidate;
    for ChildIndex := 0 to PhastModel.ChildModels.Count - 1 do
    begin
      ChildModel := PhastModel.ChildModels[ChildIndex].ChildModel;
      Link := TimeListLink.GetLink(ChildModel) as TRivTimeListLink;
      Link.FRiverStageData.Invalidate;
    end;
  end;
end;

class function TRivCollection.ItemClass: TBoundaryItemClass;
begin
  result := TRivItem;
end;

{ TRivParamItem }

class function TRivParamItem.BoundaryClass: TMF_BoundCollClass;
begin
  result := TRivCollection;
end;

{ TRiv_Cell }

function TRiv_Cell.GetRealAnnotation(Index: integer; AModel: TBaseModel): string;
begin
  result := '';
  case Index of
    StagePosition: result := RiverStageAnnotation;
    ConductancePosition: result := ConductanceAnnotation;
    BottomPosition: result := RiverBottomAnnotation;
    else Assert(False);
  end;
end;

function TRiv_Cell.GetRealValue(Index: integer; AModel: TBaseModel): double;
begin
  result := 0;
  case Index of
    StagePosition: result := RiverStage;
    ConductancePosition: result := Conductance;
    BottomPosition: result := RiverBottom;
    else Assert(False);
  end;
end;

function TRiv_Cell.GetRiverBottom: double;
begin
  result := Values.RiverBottom;
end;

function TRiv_Cell.GetRiverBottomAnnotation: string;
begin
  result := Values.RiverBottomAnnotation;
end;
