unit ModflowDrtUnit;

interface

uses Windows, ZLib, SysUtils, Classes, Contnrs, ModflowBoundaryUnit,
  OrderedCollectionUnit, DataSetUnit, ModflowCellUnit, GoPhastTypes,
  ModflowDrnUnit, ModflowGridUnit,
  FormulaManagerUnit, FormulaManagerInterfaceUnit,
  SubscriptionUnit,
  RbwParser, Modflow6DynamicTimeSeriesInterfaceUnit;

type
  TReturnChoice = (rtNone, rtObject, rtLocation, rtCell);

  TDrtRecord = record
    Cell: TCellLocation;
    Conductance: double;
    Elevation: double;
    ReturnFraction: double;
    StartingTime: double;
    EndingTime: double;
    ConductanceAnnotation: string;
    ElevationAnnotation: string;
    ReturnFractionAnnotation: string;
    ElevationPest: string;
    ConductancePest: string;
    ReturnFractionPest: string;

    ElevationPestSeriesName: string;
    ConductancePestSeriesName: string;
    ReturnFractionPestSeriesName: string;

    ElevationPestSeriesMethod: TPestParamMethod;
    ConductancePestSeriesMethod: TPestParamMethod;
    ReturnFractionPestSeriesMethod: TPestParamMethod;

    ReturnCell: TCellLocation;
    procedure Cache(Comp: TCompressionStream; Strings: TStringList);
    procedure Restore(Decomp: TDecompressionStream; Annotations: TStringList);
    procedure RecordStrings(Strings: TStringList);
  end;

  TDrtArray = array of TDrtRecord;

  TDrtStorage = class(TCustomBoundaryStorage)
  private
    FDrtArray: TDrtArray;
    function GetDrtArray: TDrtArray;
  protected
    procedure Restore(DecompressionStream: TDecompressionStream; Annotations: TStringList); override;
    procedure Store(Compressor: TCompressionStream); override;
    procedure Clear; override;
  public
    property DrtArray: TDrtArray read GetDrtArray;
  end;

  // @name represents a MODFLOW Drain boundary for one time interval.
  // @name is stored by @link(TDrnCollection).
  TDrtItem = class(TDrnItem)
  private
    FReturnFraction: IFormulaObject;
    procedure SetReturnFraction(const Value: string);
    function GetReturnFraction: string;
  protected
    procedure RemoveFormulaObjects; override;
    procedure CreateFormulaObjects; override;
    procedure AssignObserverEvents(Collection: TCollection); override;
    procedure GetPropertyObserver(Sender: TObject; List: TList); override;
    // See @link(BoundaryFormula).
    function GetBoundaryFormula(Index: integer): string; override;
    // See @link(BoundaryFormula).
    procedure SetBoundaryFormula(Index: integer; const Value: string); override;
    // @name checks whether AnotherItem is the same as the current @classname.
    function IsSame(AnotherItem: TOrderedItem): boolean; override;
    procedure InvalidateModel; override;
    function BoundaryFormulaCount: integer; override;
    function GetConductanceIndex: Integer; override;
  public
    Destructor Destroy; override;
  published
    // @name copies Source to this @classname.
    procedure Assign(Source: TPersistent);override;
    // @name is the formula used to set the fraction of extracted flow
    // returned to the model
    property ReturnFraction: string read GetReturnFraction write SetReturnFraction;
  end;

  TDrtTimeListLink = class(TTimeListsModelLink)
  private
    // @name is used to compute the Elevations for a series of
    // Drain Return Boundaries over a series of time intervals.
    FElevationData: TModflowTimeList;
    // @name is used to compute the Conductances for a series of
    // Drain Return Boundaries over a series of time intervals.
    FConductanceData: TModflowTimeList;
    // @name is used to compute the return fractions for a series of
    // Drain Return Boundaries over a series of time intervals.
    FReturnFractionData: TModflowTimeList;
  protected
    procedure CreateTimeLists; override;
  public
    Destructor Destroy; override;
  end;

  // @name represents MODFLOW Drain boundaries
  // for a series of time intervals.
  TDrtCollection = class(TCustomMF_ListBoundColl)
  private
    procedure InvalidateElevationData(Sender: TObject);
    procedure InvalidateConductanceData(Sender: TObject);
    procedure InvalidateReturnData(Sender: TObject);
  protected
    class function GetTimeListLinkClass: TTimeListsModelLinkClass; override;
    procedure AssignListCellLocation(BoundaryStorage: TCustomBoundaryStorage;
      ACellList: TObject); override;
    procedure AssignCellList(CellAssignmentData: TCellAssignmentData); override;
    function AdjustedFormula(FormulaIndex, ItemIndex: integer): string;
      override;
    procedure AddSpecificBoundary(AModel: TBaseModel); override;

    // See @link(TCustomNonSpatialBoundColl.ItemClass
    // TCustomNonSpatialBoundColl.ItemClass)
    class function ItemClass: TBoundaryItemClass; override;
    // @name calls inherited @name and then sets the length of
    // the @link(TDrtStorage.DrtArray) at ItemIndex in
    // @link(TCustomMF_BoundColl.Boundaries) to BoundaryCount.
    // @SeeAlso(TCustomMF_BoundColl.SetBoundaryStartAndEndTime
    // TCustomMF_BoundColl.SetBoundaryStartAndEndTime)
    procedure SetBoundaryStartAndEndTime(BoundaryCount: Integer;
      Item: TCustomModflowBoundaryItem; ItemIndex: Integer; AModel: TBaseModel); override;
  end;

  // Each @name stores a @link(TDrtCollection).
  // @classname is stored by @link(TModflowParameters).
  TDrtParamItem = class(TModflowParamItem)
  protected
    class function BoundaryClass: TMF_BoundCollClass; override;
  end;

  TDrt_Cell = class(TValueCell)
  private
    Values: TDrtRecord;
    StressPeriod: integer;
    function GetElevation: double;
    function GetConductance: double;
    function GetReturnFraction: double;
    function GetReturnCell: TCellLocation;
    function GetConductanceAnnotation: string;
    function GetElevationAnnotation: string;
    function GetReturnFractionAnnotation: string;
    function GetConductancePest: string;
    function GetConductancePestSeriesMethod: TPestParamMethod;
    function GetConductancePestSeriesName: string;
    function GetElevationPest: string;
    function GetElevationPestSeriesMethod: TPestParamMethod;
    function GetElevationPestSeriesName: string;
    function GetReturnFractionPest: string;
    function GetReturnFractionPestSeriesMethod: TPestParamMethod;
    function GetReturnFractionPestSeriesName: string;
  protected
    function GetColumn: integer; override;
    function GetLayer: integer; override;
    function GetRow: integer; override;
    procedure SetColumn(const Value: integer); override;
    procedure SetLayer(const Value: integer); override;
    procedure SetRow(const Value: integer); override;
    function GetIntegerValue(Index: integer; AModel: TBaseModel): integer; override;
    function GetRealValue(Index: integer; AModel: TBaseModel): double; override;
    function GetRealAnnotation(Index: integer; AModel: TBaseModel): string; override;
    function GetIntegerAnnotation(Index: integer; AModel: TBaseModel): string; override;
    procedure Cache(Comp: TCompressionStream; Strings: TStringList); override;
    procedure Restore(Decomp: TDecompressionStream; Annotations: TStringList); override;
    function GetSection: integer; override;
    procedure RecordStrings(Strings: TStringList); override;
    function GetPestName(Index: Integer): string; override;
    function GetPestSeriesMethod(Index: Integer): TPestParamMethod; override;
    function GetPestSeriesName(Index: Integer): string; override;
  public
    property Conductance: double read GetConductance;
    property Elevation: double read GetElevation;
    property ReturnFraction: double read GetReturnFraction;
    property ReturnCell: TCellLocation read GetReturnCell;
    property ConductanceAnnotation: string read GetConductanceAnnotation;
    property ElevationAnnotation: string read GetElevationAnnotation;
    property ReturnFractionAnnotation: string read GetReturnFractionAnnotation;
    function IsIdentical(AnotherCell: TValueCell): boolean; override;
    // PEST PROPERTIES
    property ElevationPest: string read GetElevationPest;
    property ConductancePest: string read GetConductancePest;
    property ReturnFractionPest: string read GetReturnFractionPest;

    property ElevationPestSeries: string read GetElevationPestSeriesName;
    property ConductancePestSeries: string read GetConductancePestSeriesName;
    property ReturnFractionPestSeries: string read GetReturnFractionPestSeriesName;

    property ElevationPestSeriesMethod: TPestParamMethod read GetElevationPestSeriesMethod;
    property ConductancePestSeriesMethod: TPestParamMethod read GetConductancePestSeriesMethod;
    property ReturnFractionPestSeriesMethod: TPestParamMethod read GetReturnFractionPestSeriesMethod;

  end;


  TReturnCell = Class(TGoPhastPersistent)
  private
    FLay: integer;
    FCol: integer;
    FRow: integer;
    procedure SetCol(const Value: integer);
    procedure SetLay(const Value: integer);
    procedure SetRow(const Value: integer);
  public
    procedure Assign(Source: TPersistent); override;
    function IsSame(OtherReturnCell: TReturnCell): boolean;
  published
    property Col: integer read FCol write SetCol;
    property Row: integer read FRow write SetRow;
    property Lay: integer read FLay write SetLay;
  End;

  TReturnLocation = Class(TGoPhastPersistent)
  private
    FZ: real;
    FX: real;
    FY: real;
    procedure SetX(const Value: real);
    procedure SetY(const Value: real);
    procedure SetZ(const Value: real);
  public
    procedure Assign(Source: TPersistent); override;
    function IsSame(OtherReturnLocation: TReturnLocation): boolean;
  published
    property X: real read FX write SetX;
    property Y: real read FY write SetY;
    property Z: real read FZ write SetZ;
  End;

  TReturnObject = class(TGoPhastPersistent)
  private
    FObjectName: string;
    FScreenObject: TObject;
    procedure SetObjectName(const Value: string);
    function GetObjectName: string;
    procedure SetScreenObject(const Value: TObject);
    function GetScreenObject: TObject;
    function ValidScreenObject(AScreenObject: TObject): boolean;
  public
    procedure Assign(Source: TPersistent); override;
    property ScreenObject: TObject read GetScreenObject
      write SetScreenObject;
    function IsSame(OtherReturnObject: TReturnObject): boolean;
  published
    property ObjectName: string read GetObjectName write SetObjectName;
  end;

  TDrainReturn = class(TGoPhastPersistent)
  private
    FReturnObject: TReturnObject;
    FReturnCell: TReturnCell;
    FReturnLocation: TReturnLocation;
    FReturnChoice: TReturnChoice;
    procedure SetReturnCell(const Value: TReturnCell);
    procedure SetReturnChoice(const Value: TReturnChoice);
    procedure SetReturnLocation(const Value: TReturnLocation);
    procedure SetReturnObject(const Value: TReturnObject);
    function StoreReturnCell: boolean;
    function StoreReturnLocation: boolean;
    function StoreReturnObject: boolean;
  public
    procedure Assign(Source: TPersistent); override;
    Constructor Create(InvalidateModelEvent: TNotifyEvent);
    Destructor Destroy; override;
    // @name returns the cell where the drain returns extracted water
    // The cell numbers in the @link(TCellLocation) will be 1 based.
    // If the @link(TCellLocation.Layer TCellLocation.Layer) = 0
    // no water is returned to the model.
    function ReturnCellLocation(AModel: TBaseModel): TCellLocation;
    function IsSame(OtherDrainReturn: TDrainReturn): boolean;
  published
    property ReturnChoice: TReturnChoice read FReturnChoice
      write SetReturnChoice;
    property ReturnCell: TReturnCell read FReturnCell
      write SetReturnCell stored StoreReturnCell;
    property ReturnLocation: TReturnLocation read FReturnLocation
      write SetReturnLocation stored StoreReturnLocation;
    property ReturnObject: TReturnObject read FReturnObject
      write SetReturnObject stored StoreReturnObject;
  end;

  // @name represents the MODFLOW Drain boundaries associated with
  // a single @link(TScreenObject).
  //
  // FormulaInterpretation determines whether the @Link(TDrnItem.Conductance
  // TDrtItem.Conductance) formulas represent
  // @unorderedlist(
  //   @item(fiSpecific - Conductance / the length or area of
  //     intersection between the @link(TScreenObject) and grid cell.)
  //   @item(fiTotal - Conductance.)
  // )
  // @seealso(TDrtCollection)
  TDrtBoundary = class(TSpecificModflowBoundary)
  private
    FDrainReturn: TDrainReturn;
    FPestElevFormula: IFormulaObject;
    FPestCondFormula: IFormulaObject;
    FPestReturnFractionFormula: IFormulaObject;
    FPestConductanceMethod: TPestParamMethod;
    FPestElevMethod: TPestParamMethod;
    FPestReturnFractionMethod: TPestParamMethod;
    FPestConductanceObserver: TObserver;
    FPestElevationObserver: TObserver;
    FPestReturnFractionObserver: TObserver;
    FUsedObserver: TObserver;
    procedure SetDrainReturn(const Value: TDrainReturn);
    function GetPestConductanceObserver: TObserver;
    function GetPestElevationObserver: TObserver;
    function GetPestReturnFractionObserver: TObserver;
    procedure InvalidateElevationData(Sender: TObject);
    procedure InvalidateConductanceData(Sender: TObject);
    procedure InvalidateReturnFractionData(Sender: TObject);
    function GetPestConductanceFormula: string;
    function GetPestElevFormula: string;
    function GetPestReturnFractionFormula: string;
    procedure SetPestConductanceFormula(const Value: string);
    procedure SetPestConductanceMethod(const Value: TPestParamMethod);
    procedure SetPestReturnFractionFormula(const Value: string);
    procedure SetPestElevFormula(const Value: string);
    procedure SetPestElevMethod(const Value: TPestParamMethod);
    procedure SetPestReturnFractionMethod(const Value: TPestParamMethod);
  protected
    // @name fills ValueTimeList with a series of TObjectLists - one for
    // each stress period.  Each such TObjectList is filled with
    // @link(TDrt_Cell)s for that stress period.
    procedure AssignCells(BoundaryStorage: TCustomBoundaryStorage;
      ValueTimeList: TList; AModel: TBaseModel); override;
    // See @link(TModflowBoundary.BoundaryCollectionClass
    // TModflowBoundary.BoundaryCollectionClass).
    class function BoundaryCollectionClass: TMF_BoundCollClass; override;
    // See @link(TModflowParamBoundary.ModflowParamItemClass
    // TModflowParamBoundary.ModflowParamItemClass).
    class function ModflowParamItemClass: TModflowParamItemClass; override;
    function ParameterType: TParameterType; override;

    procedure HandleChangedValue(Observer: TObserver); //override;
    function GetUsedObserver: TObserver; //override;
    procedure GetPropertyObserver(Sender: TObject; List: TList); override;
    procedure CreateFormulaObjects; //override;
    function BoundaryObserverPrefix: string; override;
    procedure CreateObservers; //override;
    property PestElevationObserver: TObserver read GetPestElevationObserver;
    property PestConductanceObserver: TObserver read GetPestConductanceObserver;
    property PestReturnFractionObserver: TObserver read GetPestReturnFractionObserver;
    function GetPestBoundaryFormula(FormulaIndex: integer): string; override;
    procedure SetPestBoundaryFormula(FormulaIndex: integer;
      const Value: string); override;
    function GetPestBoundaryMethod(FormulaIndex: integer): TPestParamMethod; override;
    procedure SetPestBoundaryMethod(FormulaIndex: integer;
      const Value: TPestParamMethod); override;
  public
    // @name copies @link(Values) and @link(Parameters) from the Source
    // @classname to this @classname.
    procedure Assign(Source: TPersistent); override;
    { TODO -cRefactor : Consider replacing FModel with a TNotifyEvent or interface. }
    //
    Constructor Create(Model: TBaseModel; ScreenObject: TObject);
    // @name fills ValueTimeList via a call to AssignCells for each
    // link  @link(TDrtStorage) in
    // @link(TCustomMF_BoundColl.Boundaries Values.Boundaries);
    // Those represent non-parameter boundary conditions.
    // @name fills ParamList with the names of the
    // MODFLOW DRT parameters that are in use.
    // The Objects property of ParamList has TObjectLists
    // Each such TObjectList is filled via a call to AssignCells
    // with each @link(TDrtStorage) in @link(TCustomMF_BoundColl.Boundaries
    // Param.Param.Boundaries)
    // Those represent parameter boundary conditions.
    procedure GetCellValues(ValueTimeList: TList; ParamList: TStringList;
      AModel: TBaseModel; Writer: TObject); override;
    Destructor Destroy; override;
    procedure InvalidateDisplay; override;
    class function DefaultBoundaryMethod(
      FormulaIndex: integer): TPestParamMethod; override;
  published
    property DrainReturn: TDrainReturn read FDrainReturn write SetDrainReturn;
    property PestElevFormula: string read GetPestElevFormula
      write SetPestElevFormula;
    property PestConductanceFormula: string read GetPestConductanceFormula
      write SetPestConductanceFormula;
    property PestReturnFractionFormula: string read GetPestReturnFractionFormula
      write SetPestReturnFractionFormula;
    property PestElevMethod: TPestParamMethod read FPestElevMethod
      write SetPestElevMethod;
    property PestConductanceMethod: TPestParamMethod
      read FPestConductanceMethod write SetPestConductanceMethod;
    property PestReturnFractionMethod: TPestParamMethod
      read FPestReturnFractionMethod write SetPestReturnFractionMethod;
  end;

const
  DrtElevationPosition = 0;
  DrtConductancePosition = 1;
  DrtReturnPosition = 2;

implementation

uses PhastModelUnit, ScreenObjectUnit, ModflowTimeUnit, GIS_Functions,
  frmGoPhastUnit;

resourcestring
  StrReturnFraction = 'Return fraction';

{ TDrtItem }

procedure TDrtItem.Assign(Source: TPersistent);
var
  Drt: TDrtItem;
begin
  // if Assign is updated, update IsSame too.
  if Source is TDrtItem then
  begin
    Drt := TDrtItem(Source);
    ReturnFraction := Drt.ReturnFraction;
  end;
  inherited;
end;

procedure TDrtItem.AssignObserverEvents(Collection: TCollection);
var
  ParentCollection: TDrtCollection;
  ElevationObserver: TObserver;
  ConductanceObserver: TObserver;
  ReturnObserver: TObserver;
begin
  ParentCollection := Collection as TDrtCollection;
  ElevationObserver := FObserverList[DrtElevationPosition];
  ElevationObserver.OnUpToDateSet := ParentCollection.InvalidateElevationData;
  ConductanceObserver := FObserverList[DrtConductancePosition];
  ConductanceObserver.OnUpToDateSet := ParentCollection.InvalidateConductanceData;
  ReturnObserver := FObserverList[DrtReturnPosition];
  ReturnObserver.OnUpToDateSet := ParentCollection.InvalidateReturnData;
end;

function TDrtItem.BoundaryFormulaCount: integer;
begin
  result := 3;
end;

procedure TDrtItem.CreateFormulaObjects;
begin
  inherited;
  FReturnFraction := CreateFormulaObject(dso3D);
end;

destructor TDrtItem.Destroy;
begin
  ReturnFraction := '0';
  inherited;
end;

function TDrtItem.GetBoundaryFormula(Index: integer): string;
begin
  case Index of
    DrtElevationPosition: result := Elevation;
    DrtConductancePosition: result := Conductance;
    DrtReturnPosition: result := ReturnFraction;
    else Assert(False);
  end;
end;

function TDrtItem.GetConductanceIndex: Integer;
begin
  Result := DrtConductancePosition;
end;

procedure TDrtItem.GetPropertyObserver(Sender: TObject; List: TList);
begin
  if Sender = FConductance as TObject then
  begin
    List.Add(FObserverList[DrtConductancePosition]);
  end;
  if Sender = FElevation as TObject then
  begin
    List.Add(FObserverList[DrtElevationPosition]);
  end;
  if Sender = FReturnFraction as TObject then
  begin
    List.Add(FObserverList[DrtReturnPosition]);
  end;
end;

function TDrtItem.GetReturnFraction: string;
begin
  Result := FReturnFraction.Formula;
  ResetItemObserver(DrtReturnPosition);
end;

procedure TDrtItem.InvalidateModel;
var
  PhastModel: TPhastModel;
begin
  inherited;
  PhastModel := Model as TPhastModel;
  if (PhastModel <> nil)
    and not (csDestroying in PhastModel.ComponentState)
    and not PhastModel.Clearing then
  begin
    PhastModel.InvalidateMfDrtConductance(self);
    PhastModel.InvalidateMfDrtElevation(self);
    PhastModel.InvalidateMfDrtReturnFraction(self);
  end;
end;

function TDrtItem.IsSame(AnotherItem: TOrderedItem): boolean;
var
  Item: TDrtItem;
begin
  result := (AnotherItem is TDrtItem) and inherited IsSame(AnotherItem);
  if result then
  begin
    Item := TDrtItem(AnotherItem);
    result := (Item.ReturnFraction = ReturnFraction);
  end;
end;

procedure TDrtItem.RemoveFormulaObjects;
begin
  frmGoPhast.PhastModel.FormulaManager.Remove(FReturnFraction,
    GlobalRemoveModflowBoundaryItemSubscription, GlobalRestoreModflowBoundaryItemSubscription, self);
  inherited;
end;

procedure TDrtItem.SetBoundaryFormula(Index: integer; const Value: string);
begin
  case Index of
    DrtElevationPosition: Elevation := Value;
    DrtConductancePosition: Conductance := Value;
    DrtReturnPosition: ReturnFraction := Value;
    else Assert(False);
  end;
end;

procedure TDrtItem.SetReturnFraction(const Value: string);
begin
  UpdateFormulaBlocks(Value, DrtReturnPosition, FReturnFraction);
end;

{ TDrtCollection }

class function TDrtCollection.GetTimeListLinkClass: TTimeListsModelLinkClass;
begin
  result := TDrtTimeListLink;
end;

procedure TDrtCollection.AddSpecificBoundary(AModel: TBaseModel);
begin
  AddBoundary(TDrtStorage.Create(AModel));
end;

function TDrtCollection.AdjustedFormula(FormulaIndex,
  ItemIndex: integer): string;
var
  Boundary: TDrtBoundary;
  ScreenObject: TScreenObject;
  Item: TDrtItem;
begin
  Item := Items[ItemIndex] as TDrtItem;
  if FormulaIndex = DrtConductancePosition then
  begin
    Boundary := BoundaryGroup as TDrtBoundary;
    ScreenObject := Boundary.ScreenObject as TScreenObject;
    case Boundary.FormulaInterpretation of
      fiSpecific:
        begin
          if ScreenObject.ScreenObjectLength = 0 then
          begin
            result := Item.Conductance;
          end
          else if ScreenObject.Closed then
          begin
            result := '(' + Item.Conductance
              + ') * ' + StrObjectIntersectArea;
          end
          else
          begin
            result := '(' + Item.Conductance
              + ') * ' + StrObjectSectionIntersectLength;
          end;
        end;
      fiDirect:
        begin
          result := Item.Conductance;
        end;
      fiTotal:
        begin
          if ScreenObject.ScreenObjectLength = 0 then
          begin
            result := Item.Conductance;
          end
          else if ScreenObject.Closed then
          begin
            result := '((' + Item.Conductance
              + ') * ' + StrObjectIntersectArea + ') / ' + StrObjectArea;
          end
          else
          begin
            result := '((' + Item.Conductance
              + ') * ' + StrObjectSectionIntersectLength+ ') / ' + StrObjectLength;
          end;
        end;
      else Assert(False);
    end;
  end
  else
  begin
    result := Item.BoundaryFormula[FormulaIndex];
  end;
end;

procedure TDrtCollection.AssignCellList(CellAssignmentData: TCellAssignmentData);
var
  DrtStorage: TDrtStorage;
  CellList: TCellAssignmentList;
  Index: Integer;
  ACell: TCellAssignment;
  DrtBoundaryGroup: TDrtBoundary;
  ReturnLocation: TCellLocation;
  Expression: TExpression;
  ACellList: TObject;
  BoundaryStorage: TCustomBoundaryStorage;
  BoundaryFunctionIndex: integer;
  Variables, DataSets: TList;
  AModel: TBaseModel;
  AScreenObject: TObject;
  PestName: string;
  PestSeriesName: string;
  PestSeriesMethod: TPestParamMethod;
  TimeSeriesName: string;
  DynamicTimeSeries: IDynamicTimeSeries;
begin
  Expression := CellAssignmentData.Expression;
  ACellList := CellAssignmentData.ACellList;
  BoundaryStorage := CellAssignmentData.BoundaryStorage;
  BoundaryFunctionIndex := CellAssignmentData.BoundaryFunctionIndex;
  Variables := CellAssignmentData.Variables;
  DataSets := CellAssignmentData.DataSets;
  AModel := CellAssignmentData.AModel;
  AScreenObject := CellAssignmentData.AScreenObject;
  PestName := CellAssignmentData.PestName;
  PestSeriesName := CellAssignmentData.PestSeriesName;
  PestSeriesMethod := CellAssignmentData.PestSeriesMethod;
  TimeSeriesName := CellAssignmentData.TimeSeriesName;
  DynamicTimeSeries := CellAssignmentData.DynamicTimeSeries;

  Assert(BoundaryFunctionIndex in [DrtElevationPosition, DrtConductancePosition,
    DrtReturnPosition]);
  Assert(Expression <> nil);

  DrtBoundaryGroup := BoundaryGroup as TDrtBoundary;
  ReturnLocation := DrtBoundaryGroup.DrainReturn.ReturnCellLocation(AModel);

  DrtStorage := BoundaryStorage as TDrtStorage;
  CellList := ACellList as TCellAssignmentList;
  for Index := 0 to CellList.Count - 1 do
  begin
    ACell := CellList[Index];
    UpdateCurrentScreenObject(AScreenObject as TScreenObject);
    UpdateRequiredListData(DataSets, Variables, ACell, AModel);

    Expression.Evaluate;
    with DrtStorage.DrtArray[Index] do
    begin
      case BoundaryFunctionIndex of
        DrtElevationPosition:
          begin
            Elevation := Expression.DoubleResult;
            ElevationAnnotation := ACell.Annotation;
            ElevationPest := PestName;
            ElevationPestSeriesName := PestSeriesName;
            ElevationPestSeriesMethod := PestSeriesMethod;
          end;
        DrtConductancePosition:
          begin
            Conductance := Expression.DoubleResult;
            ConductanceAnnotation := ACell.Annotation;
            ConductancePest := PestName;
            ConductancePestSeriesName := PestSeriesName;
            ConductancePestSeriesMethod := PestSeriesMethod;
            ReturnCell := ReturnLocation;
          end;
        DrtReturnPosition:
          begin
            ReturnFraction := Expression.DoubleResult;
            ReturnFractionAnnotation := ACell.Annotation;
            ReturnFractionPest := PestName;
            ReturnFractionPestSeriesName := PestSeriesName;
            ReturnFractionPestSeriesMethod := PestSeriesMethod;
          end
        else
          Assert(False);
      end;
    end;
  end;
end;

procedure TDrtCollection.AssignListCellLocation(
  BoundaryStorage: TCustomBoundaryStorage; ACellList: TObject);
var
  DrtStorage: TDrtStorage;
  CellList: TCellAssignmentList;
  Index: Integer;
  ACell: TCellAssignment;
begin
  DrtStorage := BoundaryStorage as TDrtStorage;
  CellList := ACellList as TCellAssignmentList;
  for Index := 0 to CellList.Count - 1 do
  begin
    ACell := CellList[Index];
    if ACell.LgrEdge then
    begin
      Continue;
    end;
    with DrtStorage.DrtArray[Index] do
    begin
      Cell.Layer := ACell.Layer;
      Cell.Row := ACell.Row;
      Cell.Column := ACell.Column;
      Cell.Section := ACell.Section;
    end;
  end;
end;

procedure TDrtCollection.SetBoundaryStartAndEndTime(BoundaryCount: Integer;
  Item: TCustomModflowBoundaryItem; ItemIndex: Integer; AModel: TBaseModel);
begin
  SetLength((Boundaries[ItemIndex, AModel] as TDrtStorage).FDrtArray, BoundaryCount);
  inherited;
end;

procedure TDrtCollection.InvalidateConductanceData(Sender: TObject);
var
  PhastModel: TPhastModel;
  Link: TDrtTimeListLink;
  ChildIndex: Integer;
  ChildModel: TChildModel;
begin
  if not (Sender as TObserver).UpToDate then
  begin
    PhastModel := frmGoPhast.PhastModel;
    if PhastModel.Clearing then
    begin
      Exit;
    end;
    Link := TimeListLink.GetLink(PhastModel) as TDrtTimeListLink;
    Link.FConductanceData.Invalidate;
    for ChildIndex := 0 to PhastModel.ChildModels.Count - 1 do
    begin
      ChildModel := PhastModel.ChildModels[ChildIndex].ChildModel;
      if ChildModel <> nil then
      begin
        Link := TimeListLink.GetLink(ChildModel) as TDrtTimeListLink;
        Link.FConductanceData.Invalidate;
      end;
    end;
  end;
end;

procedure TDrtCollection.InvalidateElevationData(Sender: TObject);
var
  PhastModel: TPhastModel;
  Link: TDrtTimeListLink;
  ChildIndex: Integer;
  ChildModel: TChildModel;
begin
  if not (Sender as TObserver).UpToDate then
  begin
    PhastModel := frmGoPhast.PhastModel;
    if PhastModel.Clearing then
    begin
      Exit;
    end;
    Link := TimeListLink.GetLink(PhastModel) as TDrtTimeListLink;
    Link.FElevationData.Invalidate;
    for ChildIndex := 0 to PhastModel.ChildModels.Count - 1 do
    begin
      ChildModel := PhastModel.ChildModels[ChildIndex].ChildModel;
      if ChildModel <> nil then
      begin
        Link := TimeListLink.GetLink(ChildModel) as TDrtTimeListLink;
        Link.FElevationData.Invalidate;
      end;
    end;
  end;
end;

procedure TDrtCollection.InvalidateReturnData(Sender: TObject);
var
  PhastModel: TPhastModel;
  Link: TDrtTimeListLink;
  ChildIndex: Integer;
  ChildModel: TChildModel;
begin
  if not (Sender as TObserver).UpToDate then
  begin
    PhastModel := frmGoPhast.PhastModel;
    if PhastModel.Clearing then
    begin
      Exit;
    end;
    Link := TimeListLink.GetLink(PhastModel) as TDrtTimeListLink;
    Link.FReturnFractionData.Invalidate;
    for ChildIndex := 0 to PhastModel.ChildModels.Count - 1 do
    begin
      ChildModel := PhastModel.ChildModels[ChildIndex].ChildModel;
      if ChildModel <> nil then
      begin
        Link := TimeListLink.GetLink(ChildModel) as TDrtTimeListLink;
        Link.FReturnFractionData.Invalidate;
      end;
    end;
  end;
end;

class function TDrtCollection.ItemClass: TBoundaryItemClass;
begin
  result := TDrtItem;
end;

{ TDrtParamItem }

class function TDrtParamItem.BoundaryClass: TMF_BoundCollClass;
begin
  result := TDrtCollection;
end;

{ TDrt_Cell }

function TDrt_Cell.GetElevation: double;
begin
  result := Values.Elevation;
end;

function TDrt_Cell.GetElevationAnnotation: string;
begin
  result := Values.ElevationAnnotation;
end;

function TDrt_Cell.GetElevationPest: string;
begin
  result := Values.ElevationPest;
end;

function TDrt_Cell.GetElevationPestSeriesMethod: TPestParamMethod;
begin