unit MODFLOW_SwtWriterUnit;

interface

uses
  CustomModflowWriterUnit, ModflowPackageSelectionUnit, IntListUnit,
  PhastModelUnit, Classes, ModflowSubsidenceDefUnit, InterpolatedObsCellUnit,
  System.Generics.Defaults;

type
  TModflowSWT_Writer = class(TCustomSubWriter)
  private
    FSwtPackage: TSwtPackageSelection;
    FNameOfFile: string;
    // model layer assignments for each system of no-delay interbeds
    FLNWT: TIntegerList;
    FTHICK_List: TList;
    FSse_List: TList;
    FSsv_List: TList;
    FCr_List: TList;
    FCc_List: TList;
    FVOID_List: TList;
    FSUB_List: TList;
    FMultipleSubFileNames: TStringList;
    FSubObsCollectionList: TSwtObsCollectionList;
    FInterpolatedObs: TBaseInterpolatedObsObjectList;
    FObsList: TSwtObsItemList;
    FUsedObsTypes: TStringList;
    FCombinedSubFileName: string;
    FSwtLayerNames: TStringList;
    procedure EvaluatePestObs;
    procedure RetrieveArrays;
    procedure WriteDataSet1;
    procedure WriteDataSet2;
    procedure WriteDataSet3;
    procedure WriteDataSet4;
    procedure WriteDataSet5;
    procedure WriteDataSet6;
    procedure WriteDataSets7to13;
    procedure WriteDataSet14;
    procedure WriteDataSet15;
    procedure WriteDataSet16;
    procedure WriteDataSet17;
    procedure WriteObsScript;
  protected
    function Package: TModflowPackageSelection; override;
    class function Extension: string; override;
  public
    procedure WriteFile(const AFileName: string);
    Constructor Create(Model: TCustomModel; EvaluationType: TEvaluationType); override;
    Destructor Destroy; override;
  end;


implementation

uses
  ModflowUnitNumbers, frmProgressUnit, LayerStructureUnit,
  DataSetUnit, frmErrorsAndWarningsUnit, SysUtils,
  Forms, GoPhastTypes, ScreenObjectUnit, ModflowTimeUnit, ModflowCellUnit,
  AbstractGridUnit, FastGEO, BasisFunctionUnit,
  System.Math, PestObsUnit;

resourcestring
  StrNoSWTLayersDefine = 'No SWT layers defined';
  StrInTheSWTPackage = 'In the SWT package, no systems of interbeds have bee' +
  'n defined in the MODFLOW Layer Groups dialog box.';
  StrWritingSWTPackage = 'Writing SWT Package input.';
//  StrWritingDataSet1 = '  Writing Data Set 1.';
//  StrWritingDataSet2 = '  Writing Data Set 2.';
//  StrWritingDataSet3 = '  Writing Data Set 3.';
//  StrWritingDataSet4 = '  Writing Data Set 4.';
//  StrWritingDataSet5 = '  Writing Data Set 5.';
//  StrWritingDataSet6 = '  Writing Data Set 6.';
  StrWritingDataSets7to13 = '  Writing Data Sets 7 to 13.';
  StrNoWatertableSubsi = 'No water-table subsidence layers defined.';
  StrNoWatertableSubsiDetailed = 'No water-table subsidence beds  in the Water-Table' +
  ' Subsidence package have been defined for any layer in the model. They mu' +
  'st be defined in the "Model|MODFLOW Layers" dialog box.);'#13;
  StrInvalidSWTObservat = 'Invalid SWT observation location';
  StrTheSWTObservations = 'The SWT observations defined in %s are invalid be' +
  'cause it does not intersect any cells.';
  StrInvalidSWTObservatTime = 'Invalid SWT observation time.';
  StrTheObservationTime = 'The observation time of the SWT observation "%0:s' +
  '" defined in %1:s is invalid';
//  StrWritingDataSet14 = '  Writing Data Set 14.';
//  StrWritingDataSet15 = '  Writing Data Set 15.';
//  StrWritingDataSet16 = '  Writing Data Set 16.';
//  StrWritingDataSet17 = '  Writing Data Set 17.';

{ TModflowSWT_Writer }

constructor TModflowSWT_Writer.Create(Model: TCustomModel; EvaluationType: TEvaluationType);
var
  Index: Integer;
begin
  inherited;
  FSwtLayerNames := TStringList.Create;
  FLNWT := TIntegerList.Create;
  FTHICK_List := TList.Create;
  FSse_List := TList.Create;
  FSsv_List := TList.Create;
  FCr_List := TList.Create;
  FCc_List := TList.Create;
  FVOID_List := TList.Create;
  FSUB_List := TList.Create;
  FMultipleSubFileNames := TStringList.Create;;
  for Index := 0 to SwtTypes.Count - 1 do
  begin
    FMultipleSubFileNames.Add('');
  end;
  FSubObsCollectionList := TSwtObsCollectionList.Create;
  FInterpolatedObs:= TBaseInterpolatedObsObjectList.Create;
  FObsList := TSwtObsItemList.Create;
  FUsedObsTypes := TStringList.Create;
  FUsedObsTypes.Sorted := True;
  FUsedObsTypes.Duplicates := dupIgnore;
  FUsedObsTypes.CaseSensitive := False;
end;

destructor TModflowSWT_Writer.Destroy;
begin
  FSwtLayerNames.Free;
  FUsedObsTypes.Free;
  FObsList.Free;
  FInterpolatedObs.Free;
  FSubObsCollectionList.Free;
  FMultipleSubFileNames.Free;
  FSUB_List.Free;
  FVOID_List.Free;
  FCc_List.Free;
  FCr_List.Free;
  FSsv_List.Free;
  FSse_List.Free;
  FTHICK_List.Free;
  FLNWT.Free;
  inherited;
end;

procedure TModflowSWT_Writer.EvaluatePestObs;
var
  ObjectIndex: Integer;
  AScreenObject: TScreenObject;
  SwtObservations: TSwtObservations;
  ObsIndex: Integer;
//  CurrentPrintItem: TSwtPrintItem;
  Obs: TSwtObsItem;
  PrintChoiceIndex: Integer;
  PrintChoice: TSwtPrintItem;
  StressPeriodIndex: Integer;
  StressPeriod: TModflowStressPeriod;
  CurrentStressPeriod: TModflowStressPeriod;
  CellList: TCellAssignmentList;
  ACell: TCellLocation;
  Grid: TCustomModelGrid;
  ObservationPoint: TPoint2D;
  Center: double;
  ObservationRowOffset: double;
  ObservationColumnOffset: double;
  ColDirection: Integer;
  RowDirection: Integer;
  CenterCell: TInterpolatedObsCell;
  Cell1: TInterpolatedObsCell;
  Cell3: TInterpolatedObsCell;
  Cell2: TInterpolatedObsCell;
  Direction: T2DDirection;
  NewRow: Integer;
  ActiveDataArray: TDataArray;
  NewColumn: Integer;
  InterpObs: TBaseInterpolatedObs;
  Element: TElement;
  CellIndex: Integer;
  SubCell: TInterpolatedObsCell;
  ALocation: TPoint2D;
  Fractions: TOneDRealArray;
  FoundPrintItem: Boolean;
  procedure AssignSaveOption(PrintItem: TSwtPrintItem);
  begin
    case Obs.ObsTypeIndex of
      0: // rsSUBSIDENCE2
        begin
          PrintItem.SaveSubsidence := True;
        end;
      1: // rsLAYERCOMPACT2
        begin
          PrintItem.SaveCompactionByModelLayer := True;
        end;
      2: // rsSYSTMCOMPACT
        begin
          PrintItem.SaveCompactionByInterbedSystem := True;
        end;
      3: // rsZDISPLACEMEN2
        begin
          PrintItem.SaveVerticalDisplacement := True;
        end;
      4: // rsPRECONSOLSTR
        begin
          PrintItem.SavePreconsolidationStress := True;
        end;
      5: // rsCHANGEINPCST
        begin
          PrintItem.SaveDeltaPreconsolidationStress := True;
        end;
      6: // rsGEOSTATICSTR
        begin
          PrintItem.SaveGeostaticStress := True;
        end;
      7: // rsCHANGEINGSTR
        begin
          PrintItem.SaveDeltaGeostaticStress := True;
        end;
      8: // rsEFFECTIVESTR
        begin
          PrintItem.SaveEffectiveStress := True;
        end;
      9: // rsCHANGEINEFFS
        begin
          PrintItem.SaveDeltaEffectiveStress := True;
        end;
      10: // rsVOIDRATIO
        begin
          PrintItem.SaveVoidRatio := True;
        end;
      11: // rsTHICKNESS
        begin
          PrintItem.SaveThicknessCompressibleSediments := True;
        end;
      12: // rsCENTERELEVAT
        begin
          PrintItem.SaveLayerCenterElevation := True;
        end;
    end;
  end;
begin
  Grid := Model.Grid;
  ActiveDataArray := Model.DataArrayManager.GetDataSetByName(rsActive);
  ActiveDataArray.Initialize;
  for ObjectIndex := 0 to Model.ScreenObjectCount - 1 do
  begin
    if not frmProgressMM.ShouldContinue then
    begin
      Exit;
    end;
    AScreenObject := Model.ScreenObjects[ObjectIndex];
    if AScreenObject.Deleted
      or not AScreenObject.UsedModels.UsesModel(Model) then
    begin
      Continue;
    end;
    SwtObservations := AScreenObject.ModflowSwtObservations;
    if SwtObservations <> nil then
    begin
      if SwtObservations.Comparisons.Count > 0 then
      begin
        FSubObsCollectionList.Add(SwtObservations);
      end;

      InterpObs := nil;
      CellList := TCellAssignmentList.Create;
      try
        AScreenObject.GetCellsToAssign('0', nil, nil, CellList, alFirstVertex, Model);
        if CellList.Count > 0 then
        begin
          ACell := CellList[0].Cell;
          ObservationPoint := Grid.RotateFromRealWorldCoordinatesToGridCoordinates(
            AScreenObject.Points[0]);

          Center := Grid.RowCenter(ACell.Row);
          ObservationRowOffset := -(ObservationPoint.y - Center);

          Center := Grid.ColumnCenter(ACell.Column);
          ObservationColumnOffset := (ObservationPoint.x - Center);

          ColDirection := Sign(ObservationColumnOffset);
          RowDirection := Sign(ObservationRowOffset);

          CenterCell := TInterpolatedObsCell.Create;
          CenterCell.Layer := ACell.Layer;
          CenterCell.Row := ACell.Row;
          CenterCell.Col := ACell.Column;

          Cell1 := nil;
          Cell2 := nil;
          Cell3 := nil;
          Direction := dirX;

          NewRow := 0;
          if RowDirection <> 0 then
          begin
            NewRow := ACell.Row + RowDirection;
            if (NewRow >= 0) and (NewRow < Grid.RowCount)
              and ActiveDataArray.BooleanData[ACell.Layer, NewRow, ACell.Column]  then
            begin
              Cell1 := TInterpolatedObsCell.Create;
              Cell1.Layer := ACell.Layer;
              Cell1.Row := NewRow;
              Cell1.Col := ACell.Column;
              Direction := dirY;
            end;
          end;

          NewColumn := 0;
          if ColDirection <> 0 then
          begin
            NewColumn := ACell.Column + ColDirection;
            if (NewColumn >= 0) and (NewColumn < Grid.ColumnCount)
              and ActiveDataArray.BooleanData[ACell.Layer, ACell.Row, NewColumn]  then
            begin
              Cell3 := TInterpolatedObsCell.Create;
              Cell3.Layer := ACell.Layer;
              Cell3.Row := ACell.Row;
              Cell3.Col := NewColumn;
              Direction := dirX;
            end;
          end;

          if (RowDirection <> 0) and (ColDirection <> 0)
            and ((Cell1 <> nil) or (Cell3 <> nil))
            and ActiveDataArray.BooleanData[ACell.Layer, NewRow, NewColumn]  then
          begin
            Cell2 := TInterpolatedObsCell.Create;
            Cell2.Layer := ACell.Layer;
            Cell2.Row := NewRow;
            Cell2.Col := NewColumn;
          end;

          InterpObs := TBaseInterpolatedObs.Create;
          FInterpolatedObs.Add(InterpObs);

          if (RowDirection = 0) or (ColDirection = 0) then
          begin
            InterpObs.Cells.Add(CenterCell);
            if (Cell1 <> nil) then
            begin
              InterpObs.Cells.Add(Cell1);
            end;
            if (Cell3 <> nil) then
            begin
              InterpObs.Cells.Add(Cell3);
            end;
          end
          else
          begin
            if RowDirection = ColDirection then
            begin
              if (Cell3 <> nil) then
              begin
                InterpObs.Cells.Add(Cell3);
              end;
              InterpObs.Cells.Add(CenterCell);
              if (Cell1 <> nil) then
              begin
                InterpObs.Cells.Add(Cell1);
              end;
              if (Cell2 <> nil) then
              begin
                InterpObs.Cells.Add(Cell2);
              end;
            end
            else
            begin
              InterpObs.Cells.Add(CenterCell);
              if (Cell3 <> nil) then
              begin
                InterpObs.Cells.Add(Cell3);
              end;
              if (Cell2 <> nil) then
              begin
                InterpObs.Cells.Add(Cell2);
              end;
              if (Cell1 <> nil) then
              begin
                InterpObs.Cells.Add(Cell1);
              end;
            end;
          end;

          if InterpObs.Cells.Count = 1 then
          begin
            InterpObs.Cells[0].Fraction := 1;
          end
          else
          begin
            SetLength(Element, InterpObs.Cells.Count);
            for CellIndex := 0 to InterpObs.Cells.Count - 1 do
            begin
              SubCell := InterpObs.Cells[CellIndex];
              Element[CellIndex] := Grid.UnrotatedTwoDElementCenter
                (SubCell.Col, SubCell.Row);
            end;
            ALocation := Grid.
              RotateFromRealWorldCoordinatesToGridCoordinates(AScreenObject.Points[0]);
            GetBasisFunctionFractions(Element, ALocation, Fractions, Direction);
            for CellIndex := 0 to InterpObs.Cells.Count - 1 do
            begin
              SubCell := InterpObs.Cells[CellIndex];
              SubCell.Fraction := Fractions[CellIndex];
            end;
          end;
        end
        else
        begin
          frmErrorsAndWarnings.AddError(Model, StrInvalidSWTObservat,
            Format(StrTheSWTObservations, [AScreenObject.Name]), AScreenObject);
        end;
      finally
        CellList.Free;
      end;
      for ObsIndex := 0 to SwtObservations.Count - 1 do
      begin
        Obs := SwtObservations[ObsIndex];
        Obs.Cells := InterpObs;
        FObsList.Add(Obs);
      end;
    end;
  end;

  FObsList.Sort(TComparer<TSwtObsItem>.Construct(
    function (const Left, Right: TSwtObsItem): Integer
    begin
      Result := Sign(Left.Time - Right.Time);
    end
    ));

  for ObsIndex := 0 to FObsList.Count - 1 do
  begin
    FoundPrintItem := False;
    Obs := FObsList[ObsIndex];
    FUsedObsTypes.Add(Obs.ObsType);

    for PrintChoiceIndex := 0 to FSwtPackage.PrintChoices.Count -1 do
    begin
      PrintChoice := FSwtPackage.PrintChoices[PrintChoiceIndex];
      if (Obs.Time >= PrintChoice.StartTime)
        and (Obs.Time <= PrintChoice.EndTime)  then
      begin
        AssignSaveOption(PrintChoice);
        FoundPrintItem := True;
      end;
    end;

    if not FoundPrintItem then
    begin
      CurrentStressPeriod := nil;
      for StressPeriodIndex := 0 to Model.ModflowFullStressPeriods.Count - 1 do
      begin
        StressPeriod := Model.ModflowFullStressPeriods[StressPeriodIndex];
        if (Obs.Time >= StressPeriod.StartTime)
          and (Obs.Time <= StressPeriod.EndTime) then
        begin
          CurrentStressPeriod := StressPeriod;
          Break;
        end;
      end;

      if CurrentStressPeriod <> nil then
      begin
        PrintChoice := FSwtPackage.PrintChoices.Add as TSwtPrintItem;
        PrintChoice.StartTime := CurrentStressPeriod.StartTime;
        PrintChoice.EndTime := CurrentStressPeriod.EndTime;
        AssignSaveOption(PrintChoice);
      end
      else
      begin
        frmErrorsAndWarnings.AddError(Model, StrInvalidSWTObservatTime,
          Format(StrTheObservationTime, [Obs.Name,
          (Obs.ScreenObject as TScreenObject).Name]), Obs.ScreenObject);
      end;
    end;
  end;
end;

class function TModflowSWT_Writer.Extension: string;
begin
  result := '.swt';
end;

function TModflowSWT_Writer.Package: TModflowPackageSelection;
begin
  result := Model.ModflowPackages.SwtPackage;
end;

procedure TModflowSWT_Writer.RetrieveArrays;
var
  Layers: TLayerStructure;
  MFLayer_Group: Integer;
  GroupIndex: Integer;
  Group: TLayerGroup;
  SubsidenceIndex: Integer;
  WT_Item: TSwtWaterTableItem;
  CompressibleThicknessDataArray: TDataArray;
  InitialElasticSkeletalSpecificStorageDataArray: TDataArray;
  InitialInelasticSkeletalSpecificStorageDataArray: TDataArray;
  RecompressionIndexDataArray: TDataArray;
  CompressionIndexDataArray: TDataArray;
  InitialVoidRatioDataArray: TDataArray;
  InitialCompactionDataArray: TDataArray;
  LayerIndex: Integer;
begin
  Layers := Model.LayerStructure;
  MFLayer_Group := 0;
  for GroupIndex := 1 to Layers.Count - 1 do
  begin
    Group := Layers.LayerGroups[GroupIndex];
    if Group.RunTimeSimulated then
    begin
      for SubsidenceIndex := 0 to Group.WaterTableLayers.Count - 1 do
      begin
        WT_Item := Group.WaterTableLayers[SubsidenceIndex];
        FSwtLayerNames.AddObject(WT_Item.Name, WT_Item);

        CompressibleThicknessDataArray := Model.DataArrayManager.GetDataSetByName(
          WT_Item.WaterTableCompressibleThicknessDataArrayName);
        Assert(CompressibleThicknessDataArray <> nil);

        InitialElasticSkeletalSpecificStorageDataArray := Model.DataArrayManager.GetDataSetByName(
          WT_Item.WaterTableInitialElasticSkeletalSpecificStorageDataArrayName);
        if FSwtPackage.CompressionSource = csSpecificStorage then
        begin
          Assert(InitialElasticSkeletalSpecificStorageDataArray <> nil);
        end;

        InitialInelasticSkeletalSpecificStorageDataArray := Model.DataArrayManager.GetDataSetByName(
          WT_Item.WaterTableInitialInelasticSkeletalSpecificStorageDataArrayName);
        if FSwtPackage.CompressionSource = csSpecificStorage then
        begin
          Assert(InitialInelasticSkeletalSpecificStorageDataArray <> nil);
        end;

        RecompressionIndexDataArray := Model.DataArrayManager.GetDataSetByName(
          WT_Item.WaterTableRecompressionIndexDataArrayName);
        if FSwtPackage.CompressionSource = csCompressionReComp then
        begin
          Assert(RecompressionIndexDataArray <> nil);
        end;

        CompressionIndexDataArray := Model.DataArrayManager.GetDataSetByName(
          WT_Item.WaterTableCompressionIndexDataArrayName);
        if FSwtPackage.CompressionSource = csCompressionReComp then
        begin
          Assert(CompressionIndexDataArray <> nil);
        end;

        InitialVoidRatioDataArray := Model.DataArrayManager.GetDataSetByName(
          WT_Item.WaterTableInitialVoidRatioDataArrayName);
        Assert(InitialVoidRatioDataArray <> nil);

        InitialCompactionDataArray := Model.DataArrayManager.GetDataSetByName(
          WT_Item.WaterTableInitialCompactionDataArrayName);
        Assert(InitialCompactionDataArray <> nil);

        if Group.LayerCount = 1 then
        begin
          FLNWT.Add(MFLayer_Group+1);
          FTHICK_List.Add(CompressibleThicknessDataArray);
          FSse_List.Add(InitialElasticSkeletalSpecificStorageDataArray);
          FSsv_List.Add(InitialInelasticSkeletalSpecificStorageDataArray);
          FCr_List.Add(RecompressionIndexDataArray);
          FCc_List.Add(CompressionIndexDataArray);
          FVOID_List.Add(InitialVoidRatioDataArray);
          FSUB_List.Add(InitialCompactionDataArray);
        end
        else
        begin
          if WT_Item.UseInAllLayers then
          begin
            for LayerIndex := 1 to Group.LayerCount do
            begin
              FLNWT.Add(MFLayer_Group+LayerIndex);
              FTHICK_List.Add(CompressibleThicknessDataArray);
              FSse_List.Add(InitialElasticSkeletalSpecificStorageDataArray);
              FSsv_List.Add(InitialInelasticSkeletalSpecificStorageDataArray);
              FCr_List.Add(RecompressionIndexDataArray);
              FCc_List.Add(CompressionIndexDataArray);
              FVOID_List.Add(InitialVoidRatioDataArray);
              FSUB_List.Add(InitialCompactionDataArray);
            end;
          end
          else
          begin
            for LayerIndex := 1 to Group.LayerCount do
            begin
              if WT_Item.UsedLayers.GetItemByLayerNumber(LayerIndex) <> nil then
              begin
                FLNWT.Add(MFLayer_Group+LayerIndex);
                FTHICK_List.Add(CompressibleThicknessDataArray);
                FSse_List.Add(InitialElasticSkeletalSpecificStorageDataArray);
                FSsv_List.Add(InitialInelasticSkeletalSpecificStorageDataArray);
                FCr_List.Add(RecompressionIndexDataArray);
                FCc_List.Add(CompressionIndexDataArray);
                FVOID_List.Add(InitialVoidRatioDataArray);
                FSUB_List.Add(InitialCompactionDataArray);
              end;
            end;
          end;
        end;
      end;
      Inc(MFLayer_Group,Group.LayerCount);
    end;
  end;
  Assert(FLNWT.Count = FTHICK_List.Count);
  Assert(FLNWT.Count = FSse_List.Count);
  Assert(FLNWT.Count = FSsv_List.Count);
  Assert(FLNWT.Count = FCr_List.Count);
  Assert(FLNWT.Count = FCc_List.Count);
  Assert(FLNWT.Count = FVOID_List.Count);
  Assert(FLNWT.Count = FSUB_List.Count);
end;

procedure TModflowSWT_Writer.WriteDataSet1;
var
  ISWTCB, ISWTOC, NSYSTM, ITHK, IVOID, ISTPCS, ICRCC: integer;
begin
  GetFlowUnitNumber(ISWTCB);
  ISWTOC := FSwtPackage.PrintChoices.Count;
  NSYSTM := Model.LayerStructure.WaterTableCount;
  ITHK := Ord(FSwtPackage.ThickResponse);
  IVOID := Ord(FSwtPackage.VoidRatioResponse);
  ISTPCS := Ord(FSwtPackage.PreconsolidationSource);
  ICRCC := Ord(FSwtPackage.CompressionSource);

  if NSYSTM = 0 then
  begin
    frmErrorsAndWarnings.AddError(Model, StrNoWatertableSubsi,
      StrNoWatertableSubsiDetailed);
  end;

  WriteInteger(ISWTCB);
  WriteInteger(ISWTOC);
  WriteInteger(NSYSTM);
  WriteInteger(ITHK);
  WriteInteger(IVOID);
  WriteInteger(ISTPCS);
  WriteInteger(ICRCC);
  WriteString(' # Data Set 1: ISWTCB ISWTOC NSYSTM ITHK IVOID ISTPCS ICRCC');
  NewLine;
end;

procedure TModflowSWT_Writer.WriteDataSet14;
var
  DataArray: TDataArray;
  MFLayerIndex: Integer;
//  GroupIndex: Integer;
//  Group: TLayerGroup;
  LayerIndex: Integer;
  ArrayIndex: Integer;
begin
  DataArray := Model.DataArrayManager.GetDataSetByName(StrInitialPreOffsets);

  MFLayerIndex := 0;
  for LayerIndex := 0 to Model.LayerCount - 1 do
  begin
    Application.ProcessMessages;
    if not frmProgressMM.ShouldContinue then
    begin
      Exit;
    end;
    if Model.IsLayerSimulated(LayerIndex) then
    begin
      Inc(MFLayerIndex);
      ArrayIndex := Model.
        ModflowLayerToDataSetLayer(MFLayerIndex);

      WriteArray(DataArray, ArrayIndex,
        'Data Set 14: PCSOFF, Layer ' + IntToStr(MFLayerIndex), StrNoValueAssigned, 'PCSOFF');
    end;
  end;

{  for GroupIndex := 1 to Model.LayerStructure.Count -1 do
  begin
    Application.ProcessMessages;
    if not frmProgressMM.ShouldContinue then
    begin
      Exit;
    end;

    Group := Model.LayerStructure.LayerGroups[GroupIndex];
    if Group.Simulated then
    begin
      for LayerIndex := 0 to Group.ModflowLayerCount -1 do
      begin
        Application.ProcessMessages;
        if not frmProgressMM.ShouldContinue then
        begin
          Exit;
        end;

        Inc(MFLayerIndex);
        ArrayIndex := Model.
          ModflowLayerToDataSetLayer(MFLayerIndex);

        WriteArray(DataArray, ArrayIndex,
          'Data Set 14: PCSOFF, Layer ' + IntToStr(MFLayerIndex));
      end;
    end;
  end;  }
  Model.DataArrayManager.AddDataSetToCache(DataArray);
  Model.DataArrayManager.CacheDataArrays;
end;

procedure TModflowSWT_Writer.WriteDataSet15;
var
  DataArray: TDataArray;
  MFLayerIndex: Integer;
//  GroupIndex: Integer;
//  Group: TLayerGroup;
  LayerIndex: Integer;
  ArrayIndex: Integer;
begin
  DataArray := Model.DataArrayManager.GetDataSetByName(StrInitialPreconsolida);

  MFLayerIndex := 0;
  for LayerIndex := 0 to Model.LayerCount - 1 do
  begin
    Application.ProcessMessages;
    if not frmProgressMM.ShouldContinue then
    begin
      Exit;
    end;
    if Model.IsLayerSimulated(LayerIndex) then
    begin
      Inc(MFLayerIndex);
      ArrayIndex := Model.
        ModflowLayerToDataSetLayer(MFLayerIndex);

      WriteArray(DataArray, ArrayIndex,
        'Data Set 15: PCS, Layer ' + IntToStr(MFLayerIndex), StrNoValueAssigned, 'PCS');
    end;
  end;


{  for GroupIndex := 1 to Model.LayerStructure.Count -1 do
  begin
    Application.ProcessMessages;
    if not frmProgressMM.ShouldContinue then
    begin
      Exit;
    end;

    Group := Model.LayerStructure.LayerGroups[GroupIndex];
    if Group.Simulated then
    begin
      for LayerIndex := 0 to Group.ModflowLayerCount -1 do
      begin
        Application.ProcessMessages;
        if not frmProgressMM.ShouldContinue then
        begin
          Exit;
        end;

        Inc(MFLayerIndex);
        ArrayIndex := Model.
          ModflowLayerToDataSetLayer(MFLayerIndex);

        WriteArray(DataArray, ArrayIndex,
          'Data Set 15: PCS, Layer ' + IntToStr(MFLayerIndex));
      end;
    end;
  end;  }
  Model.DataArrayManager.AddDataSetToCache(DataArray);
  Model.DataArrayManager.CacheDataArrays;
end;

procedure TModflowSWT_Writer.WriteDataSet16;
var
  PrintFormats: TSwtPrintFormats;
  Ifm1: Integer;
  Ifm2: Integer;
  Ifm3: Integer;
  Ifm4: Integer;
  Ifm5: Integer;
  Ifm6: Integer;
  Ifm7: Integer;
  Ifm8: Integer;
  Ifm9: Integer;
  Ifm10: Integer;
  Ifm11: Integer;
  Ifm12: Integer;
  Ifm13: Integer;
  Save1: Boolean;
  Save2: Boolean;
  Save3: Boolean;
  Save4: Boolean;
  Save5: Boolean;
  Save6: Boolean;
  Save7: Boolean;
  Save8: Boolean;
  Save9: Boolean;
  Save10: Boolean;
  Save11: Boolean;
  Save12: Boolean;
  Save13: Boolean;
  Index: Integer;
  PrintChoice: TSwtPrintItem;
  Iun1: Integer;
  SwtFileName: string;
//  AFileName: string;
  Iun2: Integer;
  Iun3: Integer;
  Iun4: Integer;
  Iun5: Integer;
  Iun6: Integer;
  Iun7: Integer;
  Iun8: Integer;
  Iun9: Integer;
  Iun10: Integer;
  Iun11: Integer;
  Iun12: Integer;
  Iun13: Integer;
  function GetCombinedUnitNumber: integer;
  begin
    result := Model.UnitNumbers.UnitNumber(StrSwtSUB_Out);
    if SwtFileName = '' then
    begin
      SwtFileName := ExtractFileName(ChangeFileExt(FNameOfFile, StrSwtOut));
      WriteToNameFile(StrDATABINARY, result,
        SwtFileName, foOutput, Model);
      FCombinedSubFileName := SwtFileName;
    end;
  end;
  function HandleUnitNumber(Save: boolean; const Key, Extension: string;
    FileIndex: Integer): integer;
  var
    AFileName: string;
  begin
    result := 0;
    if Save then
    begin
      case FSwtPackage.BinaryOutputChoice of
        sbocSingleFile:
          begin
            result := GetCombinedUnitNumber;
          end;
        sbocMultipleFiles:
          begin
            result := Model.UnitNumbers.UnitNumber(Key);
            AFileName := ExtractFileName(ChangeFileExt(FNameOfFile, Extension));
            WriteToNameFile(StrDATABINARY, result, AFileName, foOutput, Model);
            FMultipleSubFileNames[FileIndex] := AFileName;
          end
        else Assert(False);
      end;
    end;
  end;
begin
  SwtFileName := '';
  PrintFormats := FSwtPackage.PrintFormats;
  Ifm1 := PrintFormats.SubsidenceFormat+1;
  Ifm2 := PrintFormats.CompactionByModelLayerFormat+1;
  Ifm3 := PrintFormats.CompactionByInterbedSystemFormat+1;
  Ifm4 := PrintFormats.VerticalDisplacementFormat+1;
  Ifm5 := PrintFormats.PreconsolidationStress+1;
  Ifm6 := PrintFormats.DeltaPreconsolidationStress+1;
  Ifm7 := PrintFormats.GeostaticStress+1;
  Ifm8 := PrintFormats.DeltaGeostaticStress+1;
  Ifm9 := PrintFormats.EffectiveStress+1;
  Ifm10 := PrintFormats.DeltaEffectiveStress+1;
  Ifm11 := PrintFormats.VoidRatio+1;
  Ifm12 := PrintFormats.ThicknessCompressibleSediments+1;
  Ifm13 := PrintFormats.LayerCenterElevation+1;

  Save1 := False;
  Save2 := False;
  Save3 := False;
  Save4 := False;
  Save5 := False;
  Save6 := False;
  Save7 := False;
  Save8 := False;
  Save9 := False;
  Save10 := False;
  Save11 := False;
  Save12 := False;
  Save13 := False;
  for Index := 0 to FSwtPackage.PrintChoices.Count - 1 do
  begin
    PrintChoice := FSwtPackage.PrintChoices[Index];
    Save1 := Save1 or PrintChoice.SaveSubsidence;
    Save2 := Save2 or PrintChoice.SaveCompactionByModelLayer;
    Save3 := Save3 or PrintChoice.SaveCompactionByInterbedSystem;
    Save4 := Save4 or PrintChoice.SaveVerticalDisplacement;
    Save5 := Save5 or PrintChoice.SavePreconsolidationStress;
    Save6 := Save6 or PrintChoice.SaveDeltaPreconsolidationStress;
    Save7 := Save7 or PrintChoice.SaveGeostaticStress;
    Save8 := Save8 or PrintChoice.SaveDeltaGeostaticStress;
    Save9 := Save9 or PrintChoice.SaveEffectiveStress;
    Save10 := Save10 or PrintChoice.SaveDeltaEffectiveStress;
    Save11 := Save11 or PrintChoice.SaveVoidRatio;
    Save12 := Save12 or PrintChoice.SaveThicknessCompressibleSediments;
    Save13 := Save13 or PrintChoice.SaveLayerCenterElevation;
    if Save1 and Save2 and Save3 and Save4 and Save5 and Save6 and Save6
      and Save8 and Save9 and Save10 and Save11 and Save12 and Save13 then
    begin
      break;
    end;
  end;

  Iun1 := HandleUnitNumber(Save1, StrSwtSUB_Out, StrSwtSubOut, 0);
  Iun2 := HandleUnitNumber(Save2, StrSwtComML_Out, StrSwtComMLOut, 1);
  Iun3 := HandleUnitNumber(Save3, StrSwtCOM_IS_Out, StrSwtComIsOut, 2);
  Iun4 := HandleUnitNumber(Save4, StrSwt_VD_Out, StrSwtVDOut, 3);
  Iun5 := HandleUnitNumber(Save5, StrSwt_PreCon_Out, StrSwtPreConStrOut, 4);
  Iun6 := HandleUnitNumber(Save6, StrSwt_DeltaPreCon_Out, StrSwtDeltaPreConStrOu, 5);
  Iun7 := HandleUnitNumber(Save7, StrSwt_GeoStat_Out, StrSwtGeoStatOut, 6);
  Iun8 := HandleUnitNumber(Save8, StrSwt_DeltaGeoStat_Out, StrSwtDeltaGeoStatOut, 7);
  Iun9 := HandleUnitNumber(Save9, StrSwt_EffStress_Out, StrSwtEffStressOut, 8);
  Iun10 := HandleUnitNumber(Save10, StrSwt_DeltaEffStress_Out, StrSwtDeltaEffStressOu, 9);
  Iun11 := HandleUnitNumber(Save11, StrSwt_VoidRatio_Out, StrSwtVoidRatioOut, 10);
  Iun12 := HandleUnitNumber(Save12, StrSwt_ThickCompSed_Out, StrSwtThickCompSedOut, 11);
  Iun13 := HandleUnitNumber(Save13, StrSwt_LayerCentElev_Out, StrSwtLayerCentElevOut, 12);

  WriteInteger(Ifm1 );
  WriteInteger(Iun1 );
  WriteInteger(Ifm2 );
  WriteInteger(Iun2 );
  WriteInteger(Ifm3 );
  WriteInteger(Iun3 );
  WriteInteger(Ifm4 );
  WriteInteger(Iun4 );
  WriteInteger(Ifm5 );
  WriteInteger(Iun5 );
  WriteInteger(Ifm6 );
  WriteInteger(Iun6 );
  WriteInteger(Ifm7 );
  WriteInteger(Iun7 );
  WriteInteger(Ifm8 );
  WriteInteger(Iun8 );
  WriteInteger(Ifm9 );
  WriteInteger(Iun9 );
  WriteInteger(Ifm10);
  WriteInteger(Iun10);
  WriteInteger(Ifm11);
  WriteInteger(Iun11);
  WriteInteger(Ifm12);
  WriteInteger(Iun12);
  WriteInteger(Ifm13);
  WriteInteger(Iun13);
  WriteString(' # Data Set 16: Ifm1 Iun1 Ifm2 Iun2 Ifm3 Iun3 ... Ifm13 Iun13');
  NewLine;
end;

procedure TModflowSWT_Writer.WriteDataSet17;
var
  PrintChoiceIndex: Integer;