unit Modflow2005ImporterUnit;

interface

// Windows is used so that AnsiCompareText will be inlined.
uses System.UITypes, Windows, SubscriptionUnit, SysUtils, Classes, Contnrs,
  JclSysUtils,
  ModflowPackageSelectionUnit, Dialogs, Types, Forms, SubPolygonUnit;

type
  TProgressHandler = procedure(Position, Total: integer) of object;

  TModelType = (mtParent, mtChild);

  TGridOrigin = (goUpperLeft, goLowerLeft);

  THeadFileType = (hftText, hftBinary);

  TImportParameters = Class
    ListFileName: string;
    XOrigin: double;
    YOrigin: double;
    GridAngle: double;
    textHandler: TTextHandler;
    ProgressHandler: TProgressHandler;
    ModelType: TModelType;
    NameFile: string;
    GridOrigin: TGridOrigin;
    Outline: TOutline;
    HeadFile: string;
    HeadFileType: THeadFileType;
    FlowFile: string;
    FirstCol: Integer;
    LastCol: Integer;
    FirstRow: Integer;
    LastRow: Integer;
    destructor Destroy; override;
  end;

  TGridOutline = class(TOutline);

{
Import the MODFLOW-2005 model whose name file is ListFileName.
XOrigin, YOrigin are the X and Y coordinates of the corner of the model at
Row 1, Column1. GridAngle is the angle of the grid and textHandler
is a procedure passed in to handle data read by @name.

This procedure is implemented using classes in the implementation section.
The most important of these is TModflow2005Importer.  In
TModflow2005Importer.Create, instances of other classes are associated
with the symbols used to identify the packages in MODFLOW.
Other important base classes include TPackageImporter, TListImporter,
TArrayImporter, and TObjectArray.
}
procedure ImportModflow2005(ImportParameters: TImportParameters);
//procedure ImportModflow2005(const ListFileName: string;
//  XOrigin, YOrigin, GridAngle: double; textHandler: TTextHandler;
//  ProgressHandler: TProgressHandler; ModelType: TModelType;
//  const NameFile: string);

implementation

uses ModflowGridUnit, AbstractGridUnit, ScreenObjectUnit, GoPhastTypes,
  frmGoPhastUnit, PhastModelUnit, FastGEO, UndoItems, ValueArrayStorageUnit,
  DataSetUnit, Math, GIS_Functions, InterpolationUnit, RbwParser,
  ModflowTimeUnit, LayerStructureUnit, ModflowConstantHeadBoundaryUnit,
  ModflowParameterUnit, OrderedCollectionUnit, IntListUnit,
  ModflowTransientListParameterUnit, ModflowBoundaryUnit, ModflowWellUnit,
  ModflowGhbUnit, ModflowDrnUnit, ModflowRivUnit, ModflowRchUnit, ContourUnit,
  QuadTreeClass, frmImportModflowUnit, ModflowEvtUnit, RealListUnit,
  ModflowSfrUnit, ModflowSfrReachUnit, ModflowSfrParamIcalcUnit,
  ModflowSfrTable, ModflowSfrFlows, ModflowSfrChannelUnit,
  ModflowSfrEquationUnit, ModflowSfrSegment, ModflowSfrUnsatSegment,
  ModflowHobUnit, ModflowHfbUnit, ModflowLakUnit, ModflowDrtUnit,
  ModflowEtsUnit, ModflowResUnit, ModflowUzfUnit, ModflowGageUnit,
  HufDefinition, FluxObservationUnit, ModflowMnw2Unit, ModflowSubsidenceDefUnit,
  ModflowHydmodUnit, ContourExport, ModelMuseUtilities,
  Generics.Collections, ModflowStrUnit, ModflowStrWriterUnit,
  frmErrorsAndWarningsUnit, ModflowFhbUnit, StrUtils,
  ModflowSwrReachGeometryUnit, ModflowSwrReachUnit, ModflowSwrUnit,
  ModflowSwrDirectRunoffUnit, ModflowSwrStructureUnit, ModflowSwrTabfilesUnit,
  CustomModflowWriterUnit, ModflowSwrObsUnit, ModflowMnw1Unit, RbwModelCube,
  ReadModflowArrayUnit, System.IOUtils;

resourcestring
  StrErrorInSPackage = 'Error in %s package input. In the first stress perio' +
  'd, you can not reuse data from a previous stress period.';
  StrRecharge = 'Recharge';
  StrObservationsWithIn = 'Observations with invalid reference stress period' +
  's have been skipped.';
  StrObservationName = 'Observation Name: "%0:s"; Reference Stress Period: %' +
  '1:d';
  StrInvalidStreamTribu = 'Invalid Stream tributary number (Segment number, ' +
  'Tributary Number, Stress Period)';
  Str0d1d2d = '%0:d, %1:d, %2:d';
  StrIncorrectParameter = 'Incorrect parameter definition in SFR package.';
  StrTheParameterInstan = 'The parameter instance "%0:s" is not defined for ' +
  'the SFR parameter "%1:s."';
  StrOriginalSegmentNum = 'Original segment number = %0:d in stress period %' +
  '1:d.';
  StrSIsNegativeOrZe = '%s is negative or zero at the following locations (L' +
  'ayer, Row, Column, Value).';
  Str0d1d2d3 = '%0:d, %1:d, %2:d, %3:g';
  StrUZFRoutingSpecifie = 'UZF routing specified incorrectly';
  StrInTheUZFPackage = 'In the UZF package, the option to route groundwater ' +
  'to lakes or streams has been activated. For this option to be used, the L' +
  'AK, SFR, or SWR package must be active; none of them are active. MODFLOW ' +
  'will ignore the groundwater routing option.';
//  StrConfinedStorageCoe = 'Confined_Storage_Coefficient';
//  StrTheFileYouSelecte = 'The file you selected is empty.';
  StrTheHeadFileYouSelecte = 'The head file you selected is empty.';
  StrTheFlowFileYouSelecte = 'The flow file you selected is empty.';

const
  StrParentModelHeads = 'ParentModelHeads';
  StrParentModelFlows = 'ParentModelFlows';

var
  DummyInteger: integer;
  DummyDouble: Double;
  NameFile: string;

const
  StrHydCondAlongRows = 'HYD. COND. ALONG ROWS';
  StrHorizAnisotropy = 'HORIZ. ANI. (COL./ROW)';
  StrVerticalHydCond = 'VERTICAL HYD. COND.';
  StrHorizToVertAnis = 'HORIZ. TO VERTICAL ANI.';
  StrQuasi3DVertHydCond = 'QUASI3D VERT. HYD. COND.';
  StrSpecificStorage = 'SPECIFIC STORAGE';
  StrSpecificYield = 'SPECIFIC YIELD';
  StrWetDry = 'WETDRY PARAMETER';
  StrStorageCoef = 'STORAGE COEFFICIENT';
  StrAll = 'ALL';
  StrNone = 'NONE';
  StrImportedRechargeSt = 'Imported_Recharge_StressPeriod';
  StrImportedRecharge = 'ImportedRecharge';
  StrImportedRechargeLa = 'Imported_Recharge_Layer_StressPeriod';
  StrImportedRechargeEl = 'Imported_Recharge_Elevation';
  StrImportedEvtEl = 'Imported_Evt_Elevation';
  StrImportedEvtLa = 'Imported_Evt_Layer_StressPeriod';
  StrImportedEvtSt = 'Imported_EvtRate_StressPeriod';
  StrImportedEvtSurfSt = 'Imported_EvtSurface_StressPeriod';
  StrImportedEvtExtinctDepthSt = 'Imported_EvtExtinctionDepth_StressPeriod';
  StrLAKEIDARRAY = 'LAKE ID ARRAY';
  StrLAKEBEDLEAKANCEARR = 'LAKEBED LEAKANCE ARRAY';
  StrImportedLakeBottom = 'Imported_Lake_Bottom';
  StrETLAYERINDEXIETS = 'ET LAYER INDEX (IETS)';
  StrETSURFACEETSS = 'ET SURFACE (ETSS)';
  StrEVAPOTRANSRATEET = 'EVAPOTRANS. RATE (ETSR)';
  StrEXTINCTIONDEPTHET = 'EXTINCTION DEPTH (ETSX)';
  StrImportedETSFractionalRate = 'Imported_ETS_FractionalRate_';
  StrImportedETSFractionalDepth = 'Imported_ETS_FractionalDepth_';
  StrETSImportedFractionalDepth = 'ETS_Imported_FractionalDepth_';
  StrETSImportedFractionalRate = 'ETS_Imported_FractionalRate_';
  StrTOPELEVATN = 'TOP ELEVATN: ';
  StrTHICKNESS = 'THICKNESS: ';
  StrCOLUMNTOROWANISOT = 'COLUMN TO ROW ANISOTROPY';
  StrPRIMARYSTORAGECOEF = 'PRIMARY STORAGE COEF';
  StrTRANSMISALONGROWS = 'TRANSMIS. ALONG ROWS';
  StrHYDCONDALONGROW = 'HYD. COND. ALONG ROWS';
  StrVERTHYDCONDTHICK = 'VERT HYD COND /THICKNESS';
  StrSECONDARYSTORAGECO = 'SECONDARY STORAGE COEF';
  StrWETDRYPARAMETER = 'WETDRY PARAMETER';
  StrNUMBEROFBEDSINSY = 'NUMBER OF BEDS IN SYSTEM';
  StrPRECONSOLIDATIONHEA = 'PRECONSOLIDATION HEAD';
  StrELASTICINTERBEDSTO = 'ELASTIC INTERBED STORAGE';
  StrVIRGININTERBEDSTOR = 'VIRGIN INTERBED STORAGE';
  StrSTARTINGCOMPACTION = 'STARTING COMPACTION';
  StrDELAYSTARTINGHEAD = 'DELAY STARTING HEAD';
  StrDELAYPRECOLSOLHEA = 'DELAY PRECOLSOL. HEAD';
  StrDELAYINITIALCOMPAC = 'DELAY INITIAL COMPACTION';
  StrDELAYINTERBEDTHICK = 'DELAY INTERBED THICKNESS';
  StrMF_GEOSTATICSTRESS = 'GEOSTATIC STRESS';
  StrMOISTSPECIFICGRAVI = 'MOIST SPECIFIC GRAVITY';
  StrSATSPECIFICGRAVIT = 'SAT. SPECIFIC GRAVITY';
  StrSILTANDCLAYTHICKN = 'SILT AND CLAY THICKNESS';
  StrELASTICSPECIFICSTO = 'ELASTIC SPECIFIC STORAGE';
  StrRECOMPRESSIONINDEX = 'RECOMPRESSION INDEX';
  StrINELASSPECIFICSTO = 'INELAS. SPECIFIC STORAGE';
  StrCOMPRESSIONINDEX = 'COMPRESSION INDEX';
  StrVOIDRATIO = 'VOID RATIO';
  StrPRECONSOLSTRESS = 'PRECONSOL.   STRESS';
  StrNDSys = 'ND_Sys';
  StrImportedUZFInfiltr = 'Imported_UZF_Infil_Str_P';
  StrImportedUZFEvapotr = 'Imported_UZF_ET_Str_P';
  StrImportedUZFExtinct = 'Imported_UZF_Extinct_Depth_Str_P';
  StrImportedUZFExWC = 'Imported_UZF_Extinct_Wat_Cont_Str_P';

const
  StrConstant1DRealArray = 'CONSTANT 1D REAL ARRAY:';
  StrVariable1DRealArray = 'VARIABLE 1D REAL ARRAY:';
  StrConstant2DRealArray = 'CONSTANT 2D REAL ARRAY:';
  StrConstant2DRealArrayForLayer = 'CONSTANT 2D REAL ARRAY FOR A LAYER:';
  StrVariable2DRealArray = 'VARIABLE 2D REAL ARRAY:';
  StrVariable2DRealArrayForLayer = 'VARIABLE 2D REAL ARRAY FOR A LAYER:';
  StrVariable2DRealArrayForCrossSection
    = 'VARIABLE 2D REAL ARRAY FOR CROSS SECTION:';
  StrConstant2DIntegerArrayForLayer = 'CONSTANT 2D INTEGER ARRAY FOR A LAYER:';
  StrConstant2DIntegerArray = 'CONSTANT 2D INTEGER ARRAY:';
  StrVariable2DIntegerArrayForLayer = 'VARIABLE 2D INTEGER ARRAY FOR A LAYER:';
  StrVariable2DIntegerArrayForCrossSection
    = 'VARIABLE 2D INTEGER ARRAY FOR CROSS SECTION:';
  StrVariable2DIntegerArray = 'VARIABLE 2D INTEGER ARRAY:';
  StrInitialHead = 'INITIAL HEAD';
  BoundaryArray = 'BOUNDARY ARRAY';
  StrHEADNG1 = 'HEADNG(1):';
  StrHEADNG2 = 'HEADNG(2):';
  StrIXSECICHFLGIFREF = 'IXSEC, ICHFLG, IFREFM, IPRTIM, STOPER:';
  StrHNOFLO = 'HNOFLO:';

Type
  TDoubleArray = array of double;
  T2DDoubleArray = array of array of double;
  T2DIntArray = array of array of integer;
  TSurfacePointArray = array of array of TPoint2D;
  T3DDoubleArray = array of T2DDoubleArray;
  T3DIntArray = array of T2DIntArray;

  TMultZoneImporter = class;

  TImportedStressPeriod = record
    PERLEN: double;
    NSTP: integer;
    TSMULT: double;
    ISSFLG: integer;
  end;

  TRealConstantRecord = record
    IsConstant: boolean;
    RealValue: double;
  end;

  TRealConstantRecordArray = array of TRealConstantRecord;

  TIntegerConstantRecord = record
    IsConstant: boolean;
    IntegerValue: integer;
  end;

  TIntegerConstantArray = array of TIntegerConstantRecord;

  TClusterRecord = record
  private
    FMultiplierName: string;
    FZoneName: string;
    function GetMultiplierName: string;
    function GetZoneName: string;
  public
    Layer: integer;
    ZoneValues: array of integer;
    property MultiplierName: string read GetMultiplierName write FMultiplierName;
    property ZoneName: string read GetZoneName write FZoneName;
  end;

  TClusterRecordArray = array of TClusterRecord;

  TInstanceRecord = record
    InstanceName: string;
    Clusters: TClusterRecordArray;
  end;

  TArrayParameterRecord = record
    PARNAM: string;
    PARTYP: string;
    Parval: Double;
    Instances: array of TInstanceRecord;
  end;

  TBool2DArray = array of array of Boolean;

  TGageImporter = class;
  TChdObsImporter = class;
  TPvalImporter = class;
  THydmodImporter = class;

  TPackageProgressHandler = procedure(Position: integer) of object;

  TModflow2005Importer = class(TObject)
  strict private
    FCenterPoints: TSurfacePointArray;
    FCornerPoints: TSurfacePointArray;
    FCellAreas: T2DDoubleArray;
  private
    FListFileName: string;
    FPackageIdentifiers: TStringList;
    FFile: TextFile;
    FPointsComputed: Boolean;
    FGageImporter: TGageImporter;
    FChobImporter: TChdObsImporter;
    FPvalImporter: TPvalImporter;
    FFileSize: Integer;
    FImportParameters: TImportParameters;
    FHydmodImporter: THydmodImporter;
    StressPeriodString: string;
    function GetCenterPoints: TSurfacePointArray;
    function GetCornerPoints: TSurfacePointArray;
    function GetCellAreas: T2DDoubleArray;
    property CenterPoints: TSurfacePointArray read GetCenterPoints;
    property CornerPoints: TSurfacePointArray read GetCornerPoints;
    property CellAreas: T2DDoubleArray read GetCellAreas;
    procedure HandlePackageProgress(Position: integer);
    procedure UpdateSubModelGrid;
    procedure ImportBoundaryHeads;
    procedure ImportBoundaryFlows;
    procedure InactivateCellsOutsideSubModel;
    // when extracting a submodel, BoundaryCells represent the cells on the
    // edge of the model.
    procedure IdentifyBoundaryCells(var ActiveCells, BoundaryCells: TBool2DArray);
    procedure UpdateProgress;
  public
    textHandler: TTextHandler;
    ProgressHandler: TProgressHandler;
    Constructor Create(ImportParameters: TImportParameters);
    Destructor Destroy; override;
    procedure ImportModel;
  end;

  TObjectType = (otPoint, otLine, otPolygon);

  TPackageImporter = class(TObject)
  private
    FImportedPackage: boolean;
    FProgressHandler: TPackageProgressHandler;
    procedure AssignConstant2DIntArray(Value: integer; Array2D: T2DIntArray);
    function CreateScreenObject(const Name: string): TScreenObject; overload;
    // List contains the @link(TLocation)s for the @link(TScreenObject);
    function AddBoundaryPoints(List: TList; Index: integer;
      ObjectType: TObjectType; var AScreenObject: TScreenObject): Boolean; virtual;
    function GetStressPeriodString(StressPeriodIndex: integer): string;
    procedure CreateTransientDataSet(StressPeriodIndex: integer;
      const Root: string; DataType: TRbwDataType; var DataSet: TDataArray);
  protected
    FComments: TStringList;
    FImporter: TModflow2005Importer;
    FPackageIdentifier: string;
    FModel: TPhastModel;
    FGrid: TModflowGrid;
    StressPeriodString: string;
    // @name is passed a label indicating the data that has been read from
    // the @link(FImporter) file and reads that data from the file and stores
    // it.
    procedure ReadData(const ALabel: string); virtual;
    // @name takes the data it has stored and modifies @link(FModel) to
    // include that data.  This often means that @link(TDataArray)s and
    // @link(TScreenObject)s are created.
    procedure HandlePackage; virtual;
    procedure Read1DRealArray(var DoubleArray: TOneDRealArray);
    procedure Read2DRealArray(var DoubleArray: T2DDoubleArray; const ArrayName: string);
    procedure AssignConstant2DArray(Value: double; Array2D: T2DDoubleArray);
    procedure AssignConstant1DArray(AnArray: TOneDRealArray; Value: double);
    // @name creates a @link(TScreenObject) that has a vertex at the center
    // of the each cell as seen from the top view of the model.  Each vertex
    // is a new section. When adding vertices, the loop over columns is
    // inside the loop over rows.
    procedure CreateOrRetrieveCellCenterScreenObject(var ScreenObject
      : TScreenObject);
    procedure AssignRealValuesToCellCenters(DataArray: TDataArray;
      ScreenObject: TScreenObject; ImportedData: T2DDoubleArray);
    procedure AssignIntegerValuesToCellCenters(DataArray: TDataArray;
      ScreenObject: TScreenObject; ImportedData: T2DIntArray);
    procedure AssignBooleanValuesToCellCenters(DataArray: TDataArray;
      ScreenObject: TScreenObject; ImportedData: T2DIntArray);
    procedure ReadVariable2DIntArray(IntArray: T2DIntArray);
    procedure CreateDataArrayAndAssignValues(ScreenObject: TScreenObject;
      const DataArrayName: string; ImportedValues: T2DDoubleArray); overload;
    procedure CreateDataArrayAndAssignValues(ScreenObject: TScreenObject;
      const DataArrayName: string; ImportedValues: T2DIntArray); overload;
    procedure CheckRealConstArray(out ConstantValue: double;
      out IsConstant: boolean; const ArrayToCheck: TRealConstantRecordArray);
    function FixArrayName(const ArrayName: string): string;
    procedure AssignImportedValues(ImportedValues: TValueArrayItem;
      ImportedData: T2DDoubleArray); overload;
    procedure AssignImportedValues(ImportedValues: TValueArrayItem;
      ImportedData: TDoubleArray); overload;
    function UniformArray(ImportedData: TDoubleArray): boolean;
    // Check if an array is constant despite being specified as a variable
    // array.
    procedure CheckVariableRealArrays(var ConstArray: TRealConstantRecordArray;
      VarArray: T3DDoubleArray);
    // Check if an array is constant despite being specified as a variable
    // array.
    procedure CheckVariableIntegerArrays(var ConstArray: TIntegerConstantArray;
      VarArray: T3DIntArray);
    function CreateScreenObjectAroundGrid(const Name: string): TScreenObject;
  public
    Constructor Create(Importer: TModflow2005Importer;
      const PackageIdentifier: string);
    Destructor Destroy; override;
    procedure ImportPackage(out NextPackageIndex: integer);
    property ImportedPackage: boolean read FImportedPackage;
  end;

  TObjectImporter = class(TPackageImporter)
    function ScreenObjectNameRoot: string; virtual; abstract;
    // List contains the @link(TLocation)s for the @link(TScreenObject);
    // ScreenObjectIndex is used in assigning the consecutive values to
    // the @link(TScreenObject) name.
    // LayerIndex is the MODFLOW layer for the @link(TScreenObject) and is used
    // in assigning the @link(TScreenObject) name.
    // If LayerIndex < 1, the layer will not be used the
    //  @link(TScreenObject) name.
    // StressPeriodIndex is the stress period (starting at zero)
    // for the @link(TScreenObject) and is used
    // in assigning the @link(TScreenObject) name.
    // If StressPeriodIndex < 0, the StressPeriodIndex will not be used the
    //  @link(TScreenObject) name.
    function CreateScreenObject(List: TList; var ScreenObjectIndex: integer;
      LayerIndex, StressPeriodIndex: integer; ObjectType: TObjectType)
      : TScreenObject; overload; virtual;
  end;

  TSubModelHeadImporter = class(TObjectImporter)
    function ScreenObjectNameRoot: string; override;
  end;

  TSubModelFlowImporter = class(TObjectImporter)
  private
    FSuffix: string;
  public
    function ScreenObjectNameRoot: string; override;
    property Suffix: string read FSuffix write FSuffix;
  end;

  TSubModelInactiveImporter = class(TObjectImporter)
    function ScreenObjectNameRoot: string; override;
  end;

  TNamImporter = class(TPackageImporter)
  private
    FUnitNumbers: TIntegerList;
    FFileNames: TStringList;
  protected
    procedure ReadData(const ALabel: string); override;
  public
    Constructor Create(Importer: TModflow2005Importer);
    Destructor Destroy; override;
  end;

  TBasImporter = class;

  TDisImporter = class(TPackageImporter)
  private
    NLAY: integer;
    NROW: integer;
    NCOL: integer;
    NBOTM: integer;
    FHasFixedElevations: Boolean;
    FGridOrigin: TGridOrigin;
    FLayerThicknesses: T3DDoubleArray;
    FConstantLayerThicknesses : TRealConstantRecordArray;
    procedure ImportElevationsAndReleaseMemory;
    procedure CreateImportOutline;
    procedure SetGridLimitsFromOutline;
    function GetConstLayerThickness(LayIndex: Integer): double;
    function GetIsConstLayerThickness(LayIndex: Integer): Boolean;
    function GetVariableLayerThickness(LayIndex, RowIndex,
      ColIndex: Integer): double;
  strict private
    FBas: TBasImporter;
    FOriginPoint: TPoint2D;
    FGridAngle: Double;
    NPER: integer;
    ITMUNI: integer;
    LENUNI: integer;
    LAYCBD: array of integer;
    DELR: TOneDRealArray;
    DELC: TOneDRealArray;
    FElevations: T3DDoubleArray;
    FConstantElevations : TRealConstantRecordArray;
    FStressPeriods: array of TImportedStressPeriod;
    procedure ReadDataSet1;
    procedure ReadDataSet2;
    procedure ReadConstantDelrDelc;
    procedure ReadVariableDelrDelc;
    function GetLayerBottomIndex(Layer: Integer): integer;
    function GetConfiningBedBottomIndex(Layer: Integer): integer;
    procedure ReadConstantTopElev;
    procedure ReadConstantBottomElev;
    procedure ReadVariableTopElev;
    procedure ReadVariableBottomElev;
    procedure ImportStressPeriods;
    procedure ImportElevations;
    procedure ImportRowsAndColumns;
    procedure ReadStressPeriod;
    procedure InitializeView;
    procedure ReleaseMemory;
    procedure FixElevations;
    procedure GetLayerThicknesses;
  protected
    procedure ReadData(const ALabel: string); override;
    procedure HandlePackage; override;
  public
    Constructor Create(Importer: TModflow2005Importer;
      Bas: TBasImporter;
      XOrigin, YOrigin, GridAngle: double; GridOrigin: TGridOrigin);
    property IsConstLayerThickness[LayIndex: Integer]: Boolean
      read GetIsConstLayerThickness;
    property ConstLayerThickness[LayIndex: Integer]: double
      read GetConstLayerThickness;
    property VariableLayerThickness[LayIndex, RowIndex, ColIndex: Integer]: double
      read GetVariableLayerThickness;
  end;

  TMultZoneImporter = class(TPackageImporter)
  strict private
    FZoneArrays: array of T2DIntArray;
    FConstantZoneArrays : array of TIntegerConstantRecord;
    FZoneNames: TStringList;
    FMultArrays: array of T2DDoubleArray;
    FConstantMultArrays : array of TRealConstantRecord;
    FMultNames: TStringList;
    FCurrentMultName: string;
    FCurrentZoneName: string;
    procedure ReadNumberOfZones;
    procedure ReadNumberOfMultipliers;
    procedure ReadMultiplierName;
    procedure ReadConstantMultiplier;
    procedure ReadVariableMultiplier;
    procedure ReadMultiplierDefinedByFunction;
    procedure ReadZoneName;
    procedure ReadConstantZoneArray;
    procedure ReadVariableZoneArray;
    procedure ImportZones;
    procedure ImportMultipliers;
//    procedure ReleaseMemory;
  protected
    procedure ReadData(const ALabel: string); override;
    procedure HandlePackage; override;
  public
    Function IndexOfZone(Name: string): integer;
    function ConstantZone(Index: integer; Out ZoneValue: integer): boolean;
    function ZoneArray(Index: integer): T2DIntArray;
    Constructor Create(Importer: TModflow2005Importer);
    destructor Destroy; override;
  end;

  TArrayImporter = class(TObjectImporter)
  protected
    procedure CheckPositiveArrayValues(Values: T3DDoubleArray;
      ConstantRecordArray: TRealConstantRecordArray; Name: string;
      Bas: TBasImporter);
    procedure GetTimeStepStartAndEndTimes(TimeStepEndLists: TList;
      TimeStepStartLists: TList);
    // @name assigns values to the @link(TDataArray) named ImportArrayName.
    procedure Import2DDataSet(const ImportName, ImportArrayName: string;
      const TwoDConstRecord: TRealConstantRecord;
      const TwoDRealArray: T2DDoubleArray;
      const LayerFormulaSuffix: string = '');
    // @name sets initial values for ConstArray.
    procedure InitializeConstArray(ConstArray: TRealConstantRecordArray);
    // @name sets initial values for ConstArray.
    procedure InitializeConstIntArray(ConstArray: TIntegerConstantArray);
    procedure ImportDataSet(ImportName: string; ImportArrayName: string;
      var ThreeDConstRealArray: TRealConstantRecordArray;
      const ThreeDRealArray: T3DDoubleArray;
      const LayerFormulaSuffix: string = '');
  end;

  TArrayParameterImporter = class (TArrayImporter)
  protected
    FNextParameterIndex: integer;
    FParameters: array of TArrayParameterRecord;
    procedure ReadArrayParameter;
    function ReadInstance: boolean; virtual;
  end;

  TCustomFlowPackageImporter = class(TArrayParameterImporter)
  private
    FBas: TBasImporter;
  protected
    FIsSelected: boolean;
    ILPFCB: integer;
    HDRY: double;
    FStorageCoefficientChoice: Boolean;
    FComputeVkUsingCellThickness: Boolean;
    FComputeThicknessUsingStartingHead: Boolean;
    FNoCvCorrection: Boolean;
    FNoVerticalFlowCorrection: Boolean;
    FNoParameterCheck: boolean;
    LAYTYP: array of integer;
    LAYAVG: array of integer;
    CHANI: array of double;
    LAYVKA: array of integer;
    LAYWET: array of integer;
    FHk: T3DDoubleArray;
    FHorizontalAnisotropy: T3DDoubleArray;
    FVerticalK: T3DDoubleArray;
    FHorizontalToVerticalAnisotropy: T3DDoubleArray;
    FQuasiVerticalK: T3DDoubleArray;
    FSpecificStorage: T3DDoubleArray;
    FSpecificYield: T3DDoubleArray;
    FWetDry: T3DDoubleArray;
    FStorageCoefficient: T3DDoubleArray;
    FHkConst: TRealConstantRecordArray;
    FHorizontalAnisotropyConst: TRealConstantRecordArray;
    FVerticalKConst: TRealConstantRecordArray;
    FHorizontalToVerticalAnisotropyConst: TRealConstantRecordArray;
    FQuasiVerticalKConst: TRealConstantRecordArray;
    FSpecificStorageConst: TRealConstantRecordArray;
    FSpecificYieldConst: TRealConstantRecordArray;
    FWetDryConst: TRealConstantRecordArray;
    FStorageCoefficientConst: TRealConstantRecordArray;
    procedure ReadDataSets10to16Constant;
    procedure ReadDataSets10to16Variable;
    function PackageLabel: string; virtual; abstract;
    procedure ReadDataSet1Options;
    procedure ReadDataSets2to6;
    procedure ImportDataSet2;
    procedure ImportDataSet3;
    procedure ImportHorizontalAnisotropy;
    procedure ImportDataSet5;
    procedure ImportLpfParameters;
    procedure ImportHorizontalHydraulicConductivity;
    procedure ImportVerticalHydraulicConductivity;
    procedure ImportSpecificStorage;
    procedure ImportSpecificYield;
  public
    constructor Create(Importer: TModflow2005Importer; Bas: TBasImporter);
  end;

  TLpfImporter = class(TCustomFlowPackageImporter)
  private
    WETFCT: double;
    IWETIT: integer;
    IHDWET: integer;
    procedure ReadDataSet1;
    procedure ReadDataSet7;
    procedure ImportDataSet1(LpfPackage: TLpfSelection);
    procedure ImportDataSet6;
    procedure ImportDataSet7;
    procedure ImportWetDry;
  protected
    function ScreenObjectNameRoot: string; override;
    function PackageLabel: string; override;
    procedure ReadData(const ALabel: string); override;
    procedure HandlePackage; override;
  end;

  TUpwImporter = class(TCustomFlowPackageImporter)
  private
    IPHDRY: integer;
    procedure ReadDataSet1;
    procedure ImportDataSet1(UpwPackage: TUpwPackageSelection);
  protected
    function ScreenObjectNameRoot: string; override;
    function PackageLabel: string; override;
    procedure ReadData(const ALabel: string); override;
    procedure HandlePackage; override;
  end;

  TBcfImporter = class(TArrayImporter)
  private
    FIsSelected: Boolean;
    HDRY: double;
    WETFCT: double;
    IWDFLG: integer;
    IWETIT: integer;
    IHDWET: integer;
    NLAY: integer;
    LAYCON: TOneDIntegerArray;
    TRPY: TOneDRealArray;
    FConfinedStorage: T3DDoubleArray;
    FConfinedStorage_Const: TRealConstantRecordArray;
    FSpecificStorage: T3DDoubleArray;
    FSpecificStorage_Const: TRealConstantRecordArray;
    FTran_Const: TRealConstantRecordArray;
    FTran: T3DDoubleArray;
    FHY_Const: TRealConstantRecordArray;
    FHY: T3DDoubleArray;
    FVcont_Const: TRealConstantRecordArray;
    FVcont: T3DDoubleArray;
    FSpecificYield_Const: TRealConstantRecordArray;
    FSpecificYield: T3DDoubleArray;
    FWetDry_Const: TRealConstantRecordArray;
    FWetDry: T3DDoubleArray;
//    FModelLayer: Integer;
    FTransientModel: Boolean;
    FBas: TBasImporter;
    procedure ReadDataSet1;
    procedure ReadDataSet2;
    procedure InitializeContArray(var ConstArray: TRealConstantRecordArray);
    procedure Initialize3DArray(var ThreeDArray: T3DDoubleArray);
    procedure ReadVariableAnisotropy;
    procedure ReadConstantAnisotropy;
    procedure ReadVariableArrays;
    procedure ReadConstantArrays;
    procedure ImportDataSet1;
    procedure ImportDataSets2And3;
    procedure CheckPositiveVcont(Values: T3DDoubleArray;
      ConstantRecordArray: TRealConstantRecordArray; Name: string;
      Bas: TBasImporter);
    procedure ConvertTranToKx;
    procedure ConvertConfinedStorageToSpecificStorage;
  protected
    function ScreenObjectNameRoot: string; override;
    procedure ReadData(const ALabel: string); override;
    procedure HandlePackage; override;
  public
    Constructor Create(Importer: TModflow2005Importer; Bas: TBasImporter);
  end;

  THufRecord = record
    HUFNAME: string;
    HGUHANI: double;
    HGUVANI: double;
    PrintHK: integer;
    PrintHANI: integer;
    PrintVK: integer;
    PrintSS: integer;
    PrintSY: integer;
    PrintCode: integer;
  end;

  TKdepImporter = class;
  TLvdaImporter = class;

  TCustomHufImporter = class(TArrayParameterImporter)
  protected
    procedure AssignHufParametersZoneAndMultiplier;
  end;

  THufImporter = class(TCustomHufImporter)
  strict private
    HDRY: double;
    FHydrogeologicUnits: array of THufRecord;
    FNextHufIndexIndex: Integer;
    LTHUF: array of integer;
    LAYWT: array of double;
    WETFCT: double;
    IWETIT: Integer;
    IHDWET: Integer;
    NHUF: integer;
    NPHUF: integer;
    IOHUFHDS: integer;
    IOHUFFLWS: integer;
    IsConstTopHuf: Boolean;
    Top: T3DDoubleArray;
    IsConstThicknessHuf: Boolean;
    Thickness: T3DDoubleArray;
    FWetDry: T3DDoubleArray;
    FConstantTopElevations: array of TRealConstantRecord;
    FConstantThicknesses: array of TRealConstantRecord;
    HufPackage: THufPackageSelection;
    FWetDryConst: TRealConstantRecordArray;
    FIsSelected: Boolean;
  private
    FReadLthuf: Boolean;
    FReadKdep: boolean;
    FReadLvda: boolean;
    FKdepImporter: TKdepImporter;
    FLvdaImporter: TLvdaImporter;
    procedure ReadDataSet1;
    procedure ReadDataSet2;
    procedure ReadDataSet3;
    procedure ReadDataSet4;
    procedure ReadVariableWetDry;
    procedure ReadConstantWetDry;
    procedure ReadDataSet6;
    procedure ReadVariableHguGeometry;
    procedure ReadConstantHguGeometry;
    procedure ReadDataSet9;
    procedure ReadDataSet12;
    procedure ImportDataSet1;
    procedure ImportDataSet2;
    procedure ImportDataSet3;
    procedure ImportDataSet4;
    procedure ImportWetDry;
    procedure ImportHydrogeologicUnits;
    procedure ImportGeometry;
    function ReadInstance: boolean; override;
    procedure AssignSteadyParametersZoneAndMultiplier;
    procedure CreateParameters(HydrogeologicUnits: THydrogeologicUnits);
    procedure ReleaseMemory;
  protected
    function ScreenObjectNameRoot: string; override;
    procedure ReadData(const ALabel: string); override;
    procedure HandlePackage; override;
  public
    Constructor Create(Importer: TModflow2005Importer);
  end;

  TKdepImporter = class(TCustomHufImporter)
  private