unit ModflowLakUnit;

interface

uses Windows, ZLib, SysUtils, Classes, Contnrs, OrderedCollectionUnit,
  ModflowBoundaryUnit, ModflowCellUnit, DataSetUnit, FormulaManagerUnit,
  SubscriptionUnit, GoPhastTypes, PestObsUnit;

type
  TLakRecord = record
    Cell: TCellLocation;
    MinimumStage: double;
    MaximumStage: double;
    Precipitation: double;
    Evaporation: double;
    OverlandRunoff: double;
    Withdrawal: double;
    MinimumStageAnnotation: string;
    MaximumStageAnnotation: string;
    PrecipitationAnnotation: string;
    EvaporationAnnotation: string;
    OverlandRunoffAnnotation: string;
    WithdrawalAnnotation: string;

    MinimumStagePestName: string;
    MaximumStagePestName: string;
    PrecipitationPestName: string;
    EvaporationPestName: string;
    OverlandRunoffPestName: string;
    WithdrawalPestName: string;

    MinimumStagePestSeriesName: string;
    MaximumStagePestSeriesName: string;
    PrecipitationPestSeriesName: string;
    EvaporationPestSeriesName: string;
    OverlandRunoffPestSeriesName: string;
    WithdrawalPestSeriesName: string;

    MinimumStagePestSeriesMethod: TPestParamMethod;
    MaximumStagePestSeriesMethod: TPestParamMethod;
    PrecipitationPestSeriesMethod: TPestParamMethod;
    EvaporationPestSeriesMethod: TPestParamMethod;
    OverlandRunoffPestSeriesMethod: TPestParamMethod;
    WithdrawalPestSeriesMethod: TPestParamMethod;

    procedure Cache(Comp: TCompressionStream; Strings: TStringList);
    procedure Restore(Decomp: TDecompressionStream; Annotations: TStringList);
    procedure RecordStrings(Strings: TStringList);
  end;

  TLakArray = array of TLakRecord;

  TLakStorage = class(TCustomBoundaryStorage)
  private
    FLakArray: TLakArray;
    function GetLakArray: TLakArray;
  protected
    procedure Restore(DecompressionStream: TDecompressionStream; Annotations: TStringList); override;
    procedure Store(Compressor: TCompressionStream); override;
    procedure Clear; override;
  public
    property LakArray: TLakArray read GetLakArray;
  end;

  // @name represents a MODFLOW Drain boundary for one time interval.
  // @name is stored by @link(TResCollection).
  TLakItem = class(TCustomModflowBoundaryItem)
  private
    FMaximumStage: TFormulaObject;
    FPrecipitation: TFormulaObject;
    FMinimumStage: TFormulaObject;
    FWithdrawal: TFormulaObject;
    FOverlandRunoff: TFormulaObject;
    FEvaporation: TFormulaObject;
    procedure SetEvaporation(const Value: string);
    procedure SetMaximumStage(const Value: string);
    procedure SetMinimumStage(const Value: string);
    procedure SetOverlandRunoff(const Value: string);
    procedure SetPrecipitation(const Value: string);
    procedure SetWithdrawal(const Value: string);
    function ConvertString(Const AString: string; Out PestParValue: string): double;
    function GetEvaporation: string;
    function GetMaximumStage: string;
    function GetMinimumStage: string;
    function GetOverlandRunoff: string;
    function GetPrecipitation: string;
    function GetWithdrawal: string;
  protected
    procedure AssignObserverEvents(Collection: TCollection); override;
    procedure CreateFormulaObjects; override;
    procedure GetPropertyObserver(Sender: TObject; List: TList); override;
    procedure RemoveFormulaObjects; override;
    // See @link(BoundaryFormula).
    function GetBoundaryFormula(Index: integer): string; override;
    // See @link(BoundaryFormula).
    procedure SetBoundaryFormula(Index: integer; const Value: string); override;
    // @name checks whether AnotherItem is the same as the current @classname.
    function IsSame(AnotherItem: TOrderedItem): boolean; override;
    function BoundaryFormulaCount: integer; override;
  public
    function SSMN(Out PestParValue: string): double;
    function SSMX(Out PestParValue: string): double;
    function PRCPLK(Out PestParValue: string): double;
    function EVAPLK(Out PestParValue: string): double;
    function RNF(Out PestParValue: string): double;
    function WTHDRW(Out PestParValue: string): double;
    function ItemValue(PositionIndex: integer; Out PestParValue: string): double;
    function ItemFormula(PositionIndex: integer): string;
    Destructor Destroy; override;
  published
    // @name copies Source to this @classname.
    procedure Assign(Source: TPersistent);override;
    property MinimumStage: string read GetMinimumStage write SetMinimumStage;
    property MaximumStage: string read GetMaximumStage write SetMaximumStage;
    property Precipitation: string read GetPrecipitation write SetPrecipitation;
    property Evaporation: string read GetEvaporation write SetEvaporation;
    property OverlandRunoff: string read GetOverlandRunoff write SetOverlandRunoff;
    property Withdrawal: string read GetWithdrawal write SetWithdrawal;
  end;

  TLak_Cell = class(TValueCell)
  private
    Values: TLakRecord;
    StressPeriod: integer;
    function GetEvaporation: double;
    function GetMaximumStage: double;
    function GetMinimumStage: double;
    function GetOverlandRunoff: double;
    function GetPrecipitation: double;
    function GetWithdrawal: double;
    function GetEvaporationAnnotation: string;
    function GetMaximumStageAnnotation: string;
    function GetMinimumStageAnnotation: string;
    function GetOverlandRunoffAnnotation: string;
    function GetPrecipitationAnnotation: string;
    function GetWithdrawalAnnotation: string;
  protected
    function GetColumn: integer; override;
    function GetLayer: integer; override;
    function GetRow: integer; override;
    procedure SetColumn(const Value: integer); override;
    procedure SetLayer(const Value: integer); override;
    procedure SetRow(const Value: integer); override;
    function GetIntegerValue(Index: integer; AModel: TBaseModel): integer; override;
    function GetRealValue(Index: integer; AModel: TBaseModel): double; override;
    function GetRealAnnotation(Index: integer; AModel: TBaseModel): string; override;
    function GetIntegerAnnotation(Index: integer; AModel: TBaseModel): string; override;
    procedure Cache(Comp: TCompressionStream; Strings: TStringList); override;
    procedure Restore(Decomp: TDecompressionStream; Annotations: TStringList); override;
    function GetSection: integer; override;
    procedure RecordStrings(Strings: TStringList); override;
    function GetPestName(Index: Integer): string; override;
    function GetPestSeriesMethod(Index: Integer): TPestParamMethod; override;
    function GetPestSeriesName(Index: Integer): string; override;
  public
    property MinimumStage: double read GetMinimumStage;
    property MaximumStage: double read GetMaximumStage;
    property Precipitation: double read GetPrecipitation;
    property Evaporation: double read GetEvaporation;
    property OverlandRunoff: double read GetOverlandRunoff;
    property Withdrawal: double read GetWithdrawal;
    property MinimumStageAnnotation: string read GetMinimumStageAnnotation;
    property MaximumStageAnnotation: string read GetMaximumStageAnnotation;
    property PrecipitationAnnotation: string read GetPrecipitationAnnotation;
    property EvaporationAnnotation: string read GetEvaporationAnnotation;
    property OverlandRunoffAnnotation: string read GetOverlandRunoffAnnotation;
    property WithdrawalAnnotation: string read GetWithdrawalAnnotation;
  end;

  TLakTimeListLink = class(TTimeListsModelLink)
  private
    // @name is used to compute the stages for a series of
    // lake Boundaries over a series of time intervals.
    FMinimumStageData: TModflowTimeList;
    FMaximumStageData: TModflowTimeList;
    FPrecipitationData: TModflowTimeList;
    FEvaporationData: TModflowTimeList;
    FOverlandRunoffData: TModflowTimeList;
    FWithdrawalData: TModflowTimeList;
  protected
    procedure CreateTimeLists; override;
  public
    Destructor Destroy; override;
  end;

  // @name represents MODFLOW lake boundaries
  // for a series of time intervals.
  TLakCollection = class(TCustomMF_ArrayBoundColl)
  private
    procedure InvalidateMinStageData(Sender: TObject);
    procedure InvalidateMaxStageData(Sender: TObject);
    procedure InvalidatePrecipData(Sender: TObject);
    procedure InvalidateEvapData(Sender: TObject);
    procedure InvalidateRunoffData(Sender: TObject);
    procedure InvalidateWithdrawalData(Sender: TObject);
  protected
    function GetTimeListLinkClass: TTimeListsModelLinkClass; override;
    procedure AddSpecificBoundary(AModel: TBaseModel); override;
    // See @link(TCustomListArrayBoundColl.AssignArrayCellValues
    // TCustomListArrayBoundColl.AssignArrayCellValues)
    procedure AssignArrayCellValues(DataSets: TList; ItemIndex: Integer;
      AModel: TBaseModel; PestSeries: TStringList; PestMethods: TPestMethodList;
      PestItemNames, TimeSeriesNames: TStringListObjectList); override;
    // See @link(TCustomListArrayBoundColl.InitializeTimeLists
    // TCustomListArrayBoundColl.InitializeTimeLists)
    procedure InitializeTimeLists(ListOfTimeLists: TList; AModel: TBaseModel;
      PestSeries: TStringList; PestMethods: TPestMethodList;
      PestItemNames, TimeSeriesNames: TStringListObjectList; Writer: TObject); override;
    // See @link(TCustomNonSpatialBoundColl.ItemClass
    // TCustomNonSpatialBoundColl.ItemClass)
    class function ItemClass: TBoundaryItemClass; override;
    // @name calls inherited @name and then sets the length of
    // the @link(TResStorage.ResArray) at ItemIndex in
    // @link(TCustomMF_BoundColl.Boundaries) to BoundaryCount.
    // @SeeAlso(TCustomMF_BoundColl.SetBoundaryStartAndEndTime
    // TCustomMF_BoundColl.SetBoundaryStartAndEndTime)
    procedure SetBoundaryStartAndEndTime(BoundaryCount: Integer;
      Item: TCustomModflowBoundaryItem; ItemIndex: Integer; AModel: TBaseModel); override;
  end;

  TLakeTableItem = class(TPhastCollectionItem)
  private
    FSurfaceArea: double;
    FVolume: double;
    FStage: double;
    procedure SetStage(const Value: double);
    procedure SetSurfaceArea(const Value: double);
    procedure SetVolume(const Value: double);
    procedure ReadStage(Reader: TReader);
    procedure WriteStage(Writer: TWriter);
    procedure ReadVolume(Reader: TReader);
    procedure WriteVolume(Writer: TWriter);
    procedure ReadSurfaceArea(Reader: TReader);
    procedure WriteSurfaceArea(Writer: TWriter);
  protected
    procedure DefineProperties(Filer: TFiler); override;
  public
    procedure Assign(Source: TPersistent); override;
  published
    property Stage: double read FStage write SetStage;
    property Volume: double read FVolume write SetVolume;
    property SurfaceArea: double read FSurfaceArea write SetSurfaceArea;
  end;

  TLakeTable = class(TPhastCollection)
  strict private
    { TODO -cRefactor : Consider replacing FModel with a TNotifyEvent or interface. }
    //
    FModel: TBaseModel;
  private
    function GetItems(Index: integer): TLakeTableItem;
    procedure SetItems(Index: integer; const Value: TLakeTableItem);
  public
    constructor Create(Model: TBaseModel);
    property Items[Index: integer]: TLakeTableItem read GetItems
      write SetItems; default;
    function Add: TLakeTableItem;
    { TODO -cRefactor : Consider replacing Model with a TNotifyEvent or interface. }
    //
    property Model: TBaseModel read FModel;
  end;

  TLakeTableChoice = (lctInternal, lctExternal);

  TExternalLakeTable = class(TGoPhastPersistent)
  strict private
    FModel: TBaseModel;
  private
    FLakeTableChoice: TLakeTableChoice;
    FLakeTable: TLakeTable;
    FFullLakeTableFileName: string;
    procedure SetLakeTable(const Value: TLakeTable);
    procedure SetLakeTableChoice(const Value: TLakeTableChoice);
    procedure SetFullLakeTableFileName(const Value: string);
    function GetLakeTableFileName: string;
    procedure SetLakeTableFileName(const Value: string);
  public
    { TODO -cRefactor : Consider replacing Model with an interface. }
    //
    property Model: TBaseModel read FModel;
    procedure Assign(Source: TPersistent); override;
    { TODO -cRefactor : Consider replacing Model with a TNotifyEvent or interface. }
    //
    Constructor Create(Model: TBaseModel);
    destructor Destroy; override;
    property FullLakeTableFileName: string read FFullLakeTableFileName
      write SetFullLakeTableFileName;
  published
    property LakeTableChoice: TLakeTableChoice read FLakeTableChoice
      write SetLakeTableChoice;
    property LakeTableFileName: string read GetLakeTableFileName
      write SetLakeTableFileName;
    property LakeTable: TLakeTable read FLakeTable write SetLakeTable;
  end;

  TLakeObs = class(TCustomTimeObservationItem)
  private
    FObsType: Integer;
    procedure SetObsType(const Value: Integer);
  protected
    function GetObsTypeIndex: Integer; override;
    procedure SetObsTypeIndex(Value: Integer); override;
    function GetObsTypeString: string; override;
    procedure SetObsTypeString(const Value: string); override;
  public
    procedure Assign(Source: TPersistent); override;
    function ObservationType: string; override;
    function Units: string; override;
  published
    property ObsType: Integer read FObsType write SetObsType stored True;
    property GUID;
  end;

  TLakeObservations = class(TCustomComparisonCollection)
  private
    FGageOutputName: string;
    function GetLakeItem(Index: Integer): TLakeObs;
    procedure SetLakeItem(Index: Integer; const Value: TLakeObs);
  public
    Constructor Create(InvalidateModelEvent: TNotifyEvent; ScreenObject: TObject);
    property Items[Index: Integer]: TLakeObs read GetLakeItem
      write SetLakeItem; default;
    function Add: TLakeObs;
    property GageOutputName: string read FGageOutputName write FGageOutputName;
  end;

  TLakBoundary = class(TModflowBoundary)
  private
    FSill: double;
    FInitialStage: double;
    FCenterLake: integer;
    FLakeID: integer;
    FSubLakes: TList;
    FTrueLakeID: integer;
    FFluxCondGage: boolean;
    FStandardGage: boolean;
    FDeltaGage: boolean;
    FGage4: boolean;
    FExternalLakeTable: TExternalLakeTable;
    FObservations: TLakeObservations;
    FPestMaximumStageMethod: TPestParamMethod;
    FPestPrecipitationMethod: TPestParamMethod;
    FPestMinimumStageMethod: TPestParamMethod;
    FPestWithdrawalMethod: TPestParamMethod;
    FPestOverlandRunoffMethod: TPestParamMethod;
    FPestEvaporationMethod: TPestParamMethod;
    FPestMinimumStageFormula: TFormulaObject;
    FPestMaximumStageFormula: TFormulaObject;
    FPestPrecipitationFormula: TFormulaObject;
    FPestEvaporationFormula: TFormulaObject;
    FPestOverlandRunoffFormula: TFormulaObject;
    FPestWithdrawalFormula: TFormulaObject;
    FUsedObserver: TObserver;
    FPestEvaporationObserver: TObserver;
    FPestMaximumStageObserver: TObserver;
    FPestMinimumStageObserver: TObserver;
    FPestOverlandRunoffObserver: TObserver;
    FPestPrecipitationObserver: TObserver;
    FPestWithdrawalObserver: TObserver;
    procedure SetCenterLake(const Value: integer);
    procedure SetInitialStage(const Value: double);
    procedure SetSill(const Value: double);
    procedure SetLakeID(const Value: integer);
    function GetSubLakeCount: integer;
    function GetSubLake(Index: Integer): TObject;
    procedure SetDeltaGage(const Value: boolean);
    procedure SetFluxCondGage(const Value: boolean);
    procedure SetStandardGage(const Value: boolean);
    function GetOutType: integer;
    procedure SetGage4(const Value: boolean);
    procedure SetExternalLakeTable(const Value: TExternalLakeTable);
    procedure SetObservations(const Value: TLakeObservations);
    function GetPestEvaporationFormula: string;
    function GetPestEvaporationObserver: TObserver;
    function GetPestMaximumStageFormula: string;
    function GetPestMaximumStageObserver: TObserver;
    function GetPestMinimumStageFormula: string;
    function GetPestMinimumStageObserver: TObserver;
    function GetPestOverlandRunoffFormula: string;
    function GetPestOverlandRunoffObserver: TObserver;
    function GetPestPrecipitationFormula: string;
    function GetPestPrecipitationObserver: TObserver;
    function GetPestWithdrawalFormula: string;
    function GetPestWithdrawalObserver: TObserver;
    procedure SetPestEvaporationFormula(const Value: string);
    procedure SetPestEvaporationMethod(const Value: TPestParamMethod);
    procedure SetPestMaximumStageFormula(const Value: string);
    procedure SetPestMaximumStageMethod(const Value: TPestParamMethod);
    procedure SetPestMinimumStageFormula(const Value: string);
    procedure SetPestMinimumStageMethod(const Value: TPestParamMethod);
    procedure SetPestOverlandRunoffFormula(const Value: string);
    procedure SetPestOverlandRunoffMethod(const Value: TPestParamMethod);
    procedure SetPestPrecipitationFormula(const Value: string);
    procedure SetPestPrecipitationMethod(const Value: TPestParamMethod);
    procedure SetPestWithdrawalFormula(const Value: string);
    procedure SetPestWithdrawalMethod(const Value: TPestParamMethod);
  protected
    procedure AssignCells(BoundaryStorage: TCustomBoundaryStorage;
      ValueTimeList: TList; AModel: TBaseModel); override;
    class function BoundaryCollectionClass: TMF_BoundCollClass; override;

    procedure HandleChangedValue(Observer: TObserver); //override;
    function GetUsedObserver: TObserver; //override;
    procedure GetPropertyObserver(Sender: TObject; List: TList); override;
    procedure CreateFormulaObjects; //override;
    function BoundaryObserverPrefix: string; override;
    procedure CreateObservers; //override;
    function GetPestBoundaryFormula(FormulaIndex: integer): string; override;
    procedure SetPestBoundaryFormula(FormulaIndex: integer;
      const Value: string); override;
    function GetPestBoundaryMethod(FormulaIndex: integer): TPestParamMethod; override;
    procedure SetPestBoundaryMethod(FormulaIndex: integer;
      const Value: TPestParamMethod); override;
    property PestMinimumStageObserver: TObserver read GetPestMinimumStageObserver;
    property PestMaximumStageObserver: TObserver read GetPestMaximumStageObserver;
    property PestPrecipitationObserver: TObserver read GetPestPrecipitationObserver;
    property PestEvaporationObserver: TObserver read GetPestEvaporationObserver;
    property PestOverlandRunoffObserver: TObserver read GetPestOverlandRunoffObserver;
    property PestWithdrawalObserver: TObserver read GetPestWithdrawalObserver;
  public
    Constructor Create(Model: TBaseModel; ScreenObject: TObject);
    // @name destroys the current instance of @classname.  Do not call
    // @name directly.  Call Free instead.
    Destructor Destroy; override;
    procedure Assign(Source: TPersistent); override;
    procedure GetCellValues(ValueTimeList: TList; ParamList: TStringList;
      AModel: TBaseModel; Writer: TObject); override;
    property SubLakeCount: integer read GetSubLakeCount;
    property SubLakes[Index: integer]: TObject read GetSubLake;
    procedure ClearSubLakes;
    procedure AddSubLake(Lake: TObject);
    property TrueLakeID: integer read FTrueLakeID write FTrueLakeID;
    procedure DeleteSubLake(Index: integer);
    property OutType: integer read GetOutType;
    procedure ReplaceGUID;
    class function DefaultBoundaryMethod(
      FormulaIndex: integer): TPestParamMethod; override;
  published
    property InitialStage: double read FInitialStage write SetInitialStage;
    property CenterLake: integer read FCenterLake write SetCenterLake;
    property Sill: double read FSill write SetSill;
    property LakeID: integer read FLakeID write SetLakeID;
    property StandardGage: boolean read FStandardGage write SetStandardGage;
    property FluxCondGage: boolean read FFluxCondGage write SetFluxCondGage;
    property DeltaGage: boolean read FDeltaGage write SetDeltaGage;
    property Gage4: boolean read FGage4 write SetGage4;
    property ExternalLakeTable: TExternalLakeTable read FExternalLakeTable write SetExternalLakeTable;
    property Observations: TLakeObservations read FObservations
      write SetObservations
      {$IFNDEF PEST}
      stored False
      {$ENDIF}
      ;
    property PestMinimumStageFormula: string read GetPestMinimumStageFormula
      write SetPestMinimumStageFormula
      {$IFNDEF PEST}
      Stored False
      {$ENDIF}
      ;
    property PestMinimumStageMethod: TPestParamMethod read FPestMinimumStageMethod
      write SetPestMinimumStageMethod
      {$IFNDEF PEST}
      Stored False
      {$ENDIF}
      ;
    property PestMaximumStageFormula: string read GetPestMaximumStageFormula
      write SetPestMaximumStageFormula
      {$IFNDEF PEST}
      Stored False
      {$ENDIF}
      ;
    property PestMaximumStageMethod: TPestParamMethod read FPestMaximumStageMethod
      write SetPestMaximumStageMethod
      {$IFNDEF PEST}
      Stored False
      {$ENDIF}
      ;
    property PestPrecipitationFormula: string read GetPestPrecipitationFormula
      write SetPestPrecipitationFormula
      {$IFNDEF PEST}
      Stored False
      {$ENDIF}
      ;
    property PestPrecipitationMethod: TPestParamMethod read FPestPrecipitationMethod
      write SetPestPrecipitationMethod
      {$IFNDEF PEST}
      Stored False
      {$ENDIF}
      ;
    property PestEvaporationFormula: string read GetPestEvaporationFormula
      write SetPestEvaporationFormula
      {$IFNDEF PEST}
      Stored False
      {$ENDIF}
      ;
    property PestEvaporationMethod: TPestParamMethod read FPestEvaporationMethod
      write SetPestEvaporationMethod
      {$IFNDEF PEST}
      Stored False
      {$ENDIF}
      ;
    property PestOverlandRunoffFormula: string read GetPestOverlandRunoffFormula
      write SetPestOverlandRunoffFormula
      {$IFNDEF PEST}
      Stored False
      {$ENDIF}
      ;
    property PestOverlandRunoffMethod: TPestParamMethod read FPestOverlandRunoffMethod
      write SetPestOverlandRunoffMethod
      {$IFNDEF PEST}
      Stored False
      {$ENDIF}
      ;
    property PestWithdrawalFormula: string read GetPestWithdrawalFormula
      write SetPestWithdrawalFormula
      {$IFNDEF PEST}
      Stored False
      {$ENDIF}
      ;
    property PestWithdrawalMethod: TPestParamMethod read FPestWithdrawalMethod
      write SetPestWithdrawalMethod
      {$IFNDEF PEST}
      Stored False
      {$ENDIF}
      ;
  end;

var
  LakeGageOutputTypes: TStringList;
  LakeGageUnits: TStringList;

const
  LakMinimumStagePosition = 0;
  LakMaximumStagePosition = 1;
  LakPrecipitationPosition = 2;
  LakEvaporationPosition = 3;
  LakOverlandRunoffPosition = 4;
  LakWithdrawalPosition = 5;

implementation

uses RbwParser, ScreenObjectUnit, PhastModelUnit, ModflowTimeUnit,
  ModflowTransientListParameterUnit, TempFiles,
  frmFormulaErrorsUnit, frmGoPhastUnit, ModflowParameterUnit;

resourcestring
  StrEvaporationForThe = '(evaporation for the Lake package)';
  StrPrecipitationForT = '(precipitation for the Lake package)';
  StrRunoffForTheLake = '(runoff for the Lake package)';
  StrMinimumStageForT = '(minimum stage for the Lake package)';
  StrMaximumStageForT = '(maximum stage for the Lake package)';
  StrWithdrawalForThe = '(withdrawal for the Lake package)';
  StrMinimumStage = 'Minimum stage';
  StrMaximumStage = 'Maximum stage';
  StrPrecipitation = 'Precipitation L/T';
  StrEvaporation = 'Evaporation L/T';
  StrOverlandRunoff = 'Overland runoff L^3/T';
  StrWithdrawal = 'Withdrawal L^3/T';

//  StreamGageOutputTypes: TStringList;

procedure InitializeGageOutputTypes;
begin
  LakeGageOutputTypes := TStringList.Create;
  LakeGageUnits := TStringList.Create;
  
  LakeGageOutputTypes.CaseSensitive := False;
  
  LakeGageOutputTypes.Add('Stage(H)');    LakeGageUnits.Add('L');
  LakeGageOutputTypes.Add('Volume');      LakeGageUnits.Add('L3');
  LakeGageOutputTypes.Add('Precip.');     LakeGageUnits.Add('L3');
  LakeGageOutputTypes.Add('Evap.');       LakeGageUnits.Add('L3');
  LakeGageOutputTypes.Add('Runoff');      LakeGageUnits.Add('L3');
  LakeGageOutputTypes.Add('GW-Inflw');    LakeGageUnits.Add('L3');
  LakeGageOutputTypes.Add('GW-Outflw');   LakeGageUnits.Add('L3');
  LakeGageOutputTypes.Add('SW-Inflw');    LakeGageUnits.Add('L3');
  LakeGageOutputTypes.Add('SW-Outflw');   LakeGageUnits.Add('L3');
  LakeGageOutputTypes.Add('Withdrawal');  LakeGageUnits.Add('L3');
  LakeGageOutputTypes.Add('Lake-Inflx');  LakeGageUnits.Add('L3');
  LakeGageOutputTypes.Add('Total-Cond.'); LakeGageUnits.Add('L2/T');
  LakeGageOutputTypes.Add('Del-H-TS');    LakeGageUnits.Add('L/T');
  LakeGageOutputTypes.Add('Del-V-TS');    LakeGageUnits.Add('L3/T');
  LakeGageOutputTypes.Add('Del-H-Cum');   LakeGageUnits.Add('L');
  LakeGageOutputTypes.Add('Del-V-Cum');   LakeGageUnits.Add('L3');
end;


{ TLakItem }

procedure TLakItem.Assign(Source: TPersistent);
var
  Lak: TLakItem;
begin
  // if Assign is updated, update IsSame too.
  if Source is TLakItem then
  begin
    Lak := TLakItem(Source);
    MinimumStage := Lak.MinimumStage;
    MaximumStage := Lak.MaximumStage;
    Precipitation := Lak.Precipitation;
    Evaporation := Lak.Evaporation;
    OverlandRunoff := Lak.OverlandRunoff;
    Withdrawal := Lak.Withdrawal;
  end;
  inherited;
end;

procedure TLakItem.AssignObserverEvents(Collection: TCollection);
var
  ParentCollection: TLakCollection;
  MinStageObserver: TObserver;
  MaxStageObserver: TObserver;
  PrecipObserver: TObserver;
  EvapObserver: TObserver;
  RunoffObserver: TObserver;
  WithdrawalObserver: TObserver;
begin
  ParentCollection := Collection as TLakCollection;
  MinStageObserver := FObserverList[LakMinimumStagePosition];
  MinStageObserver.OnUpToDateSet := ParentCollection.InvalidateMinStageData;
  MaxStageObserver := FObserverList[LakMaximumStagePosition];
  MaxStageObserver.OnUpToDateSet := ParentCollection.InvalidateMaxStageData;
  PrecipObserver := FObserverList[LakPrecipitationPosition];
  PrecipObserver.OnUpToDateSet := ParentCollection.InvalidatePrecipData;
  EvapObserver := FObserverList[LakEvaporationPosition];
  EvapObserver.OnUpToDateSet := ParentCollection.InvalidateEvapData;
  RunoffObserver := FObserverList[LakOverlandRunoffPosition];
  RunoffObserver.OnUpToDateSet := ParentCollection.InvalidateRunoffData;
  WithdrawalObserver := FObserverList[LakWithdrawalPosition];
  WithdrawalObserver.OnUpToDateSet := ParentCollection.InvalidateWithdrawalData;
end;

function TLakItem.BoundaryFormulaCount: integer;
begin
  result := 6;
end;

function TLakItem.ConvertString(const AString: string; Out PestParValue: string): double;
var
  Compiler: TRbwParser;
  Model: TPhastModel;
  OrderedCollection: TOrderedCollection;
  TempFormula: string;
  Param: TModflowSteadyParameter;
begin
  OrderedCollection := Collection as TOrderedCollection;
  Model := OrderedCollection.Model as TPhastModel;
  Compiler := Model.rpThreeDFormulaCompiler;

  Param := Model.GetPestParameterByName(AString);
  if Param <> nil then
  begin
    Param.IsUsedInTemplate := True;
    result := Param.Value;
    PestParValue := Param.ParameterName;
  end
  else
  begin
    TempFormula := AString;
    Compiler.Compile(TempFormula);
    Compiler.CurrentExpression.Evaluate;
    result := Compiler.CurrentExpression.DoubleResult;
    PestParValue := '';
  end;
end;

procedure TLakItem.CreateFormulaObjects;
begin
  inherited;
  FMinimumStage := CreateFormulaObject(dso3D);
  FMaximumStage := CreateFormulaObject(dso3D);
  FPrecipitation := CreateFormulaObject(dso3D);
  FEvaporation := CreateFormulaObject(dso3D);
  FOverlandRunoff := CreateFormulaObject(dso3D);
  FWithdrawal := CreateFormulaObject(dso3D);
end;

destructor TLakItem.Destroy;
begin
  MinimumStage := '0';
  MaximumStage := '0';
  Precipitation := '0';
  Evaporation := '0';
  OverlandRunoff := '0';
  Withdrawal := '0';
  inherited;
end;

function TLakItem.EVAPLK(Out PestParValue: string): double;
var
  LocalScreenObject: TScreenObject;
begin
  try
    result := ConvertString(Evaporation, PestParValue);
  except on E: ERbwParserError do
    begin
      LocalScreenObject := ScreenObject as TScreenObject;
      frmFormulaErrors.AddFormulaError(LocalScreenObject.Name,
        StrEvaporationForThe,
        Evaporation, E.Message);
      Evaporation := '0.';
      result := ConvertString(Evaporation, PestParValue);
    end;
  end;
end;

function TLakItem.GetBoundaryFormula(Index: integer): string;
begin
  case Index of
    LakMinimumStagePosition: result := MinimumStage;
    LakMaximumStagePosition: result := MaximumStage;
    LakPrecipitationPosition: result := Precipitation;
    LakEvaporationPosition: result := Evaporation;
    LakOverlandRunoffPosition: result := OverlandRunoff;
    LakWithdrawalPosition: result := Withdrawal;
    else Assert(False);
  end;
end;

function TLakItem.GetEvaporation: string;
begin
  Result := FEvaporation.Formula;
  ResetItemObserver(LakEvaporationPosition);
end;

function TLakItem.GetMaximumStage: string;
begin
  Result := FMaximumStage.Formula;
  ResetItemObserver(LakMaximumStagePosition);
end;

function TLakItem.GetMinimumStage: string;
begin
  Result := FMinimumStage.Formula;
  ResetItemObserver(LakMinimumStagePosition);
end;

function TLakItem.GetOverlandRunoff: string;
begin
  Result := FOverlandRunoff.Formula;
  ResetItemObserver(LakOverlandRunoffPosition);
end;

function TLakItem.GetPrecipitation: string;
begin
  Result := FPrecipitation.Formula;
  ResetItemObserver(LakPrecipitationPosition);
end;

procedure TLakItem.GetPropertyObserver(Sender: TObject; List: TList);
begin
  if Sender = FMinimumStage then
  begin
    List.Add(FObserverList[LakMinimumStagePosition]);
  end;
  if Sender = FMaximumStage then
  begin
    List.Add(FObserverList[LakMaximumStagePosition]);
  end;
  if Sender = FPrecipitation then
  begin
    List.Add(FObserverList[LakPrecipitationPosition]);
  end;
  if Sender = FEvaporation then
  begin
    List.Add(FObserverList[LakEvaporationPosition]);
  end;
  if Sender = FOverlandRunoff then
  begin
    List.Add(FObserverList[LakOverlandRunoffPosition]);
  end;
  if Sender = FWithdrawal then