{@name writes the FMP input file for MODFLOW-OWHM version 2.}
unit ModflowFmp4WriterUnit;

interface

uses
  System.Classes, System.Contnrs, Vcl.Forms, System.SysUtils,
  CustomModflowWriterUnit, PhastModelUnit, ModflowFmpWellUnit, ModflowCellUnit,
  ModflowPackageSelectionUnit, ScreenObjectUnit, ModflowBoundaryUnit, RbwParser,
  DataSetUnit, OrderedCollectionUnit, GoPhastTypes, ModflowBoundaryDisplayUnit;

type
  TWriteLocation = (wlMain, wlOpenClose, wlOFE, wlCID, wlFID, wlRoot, wlCropUse, wlETR,
    wlEtFrac, wlSwLosses, wlPFLX, wlCropFunc, wlWaterCost, wlDeliveries,
    wlSemiRouteDeliv, wlSemiRouteReturn, wlCall, wlEfficiency,
    wlEfficiencyImprovement, wlBareRunoffFraction,
    wlBarePrecipitationConsumptionFraction, wlCapillaryFringe, wlSoilID,
    wlSurfaceK, wlBareEvap, wlDirectRecharge, wlPrecipPotConsumption,
    wlNrdInfilLoc, wlLandUseAreaFraction, wlCropCoefficient);

  TWriteTransientData = procedure (WriteLocation: TWriteLocation) of object;

  TCheckDataSet = procedure (IntegerArray: TDataArray;
    const ErrorMessage: string) of object;

  TTransientDataUsed = function (Sender: TObject): Boolean of object;

  TEvaluateProcedure = procedure of object;

  TUpdateRequirements = record
    EvaluateProcedure: TEvaluateProcedure;
    TransientDataUsed: TTransientDataUsed;
    WriteLocation: TWriteLocation;
    TimeLists: TModflowBoundListOfTimeLists;
  end;

  TRequiredValues = record
    WriteLocation: TWriteLocation;
    Comment: string;
    DataTypeIndex: Integer;
    DataType: TRbwDataType;
    DefaultValue: Double;
    ErrorID: string;
    ID: string;
    StaticDataName: string;
    WriteTransientData: Boolean;
    CheckProcedure: TCheckDataSet;
    CheckError: string;
    Option: string;
    FarmProperty: TFarmProperty;
    LandUseStaticFileNames: TStringList;
  end;

  TModflowFmp4Writer = class(TCustomListWriter)
  private
    FFarmProcess4: TFarmProcess4;
    FClimatePackage: TFarmProcess4Climate;
    FLandUse: TFarmProcess4LandUse;
    FSurfaceWater4: TFarmProcess4SurfaceWater;

    FACtiveSurfaceCells: array of array of boolean;
    FWriteLocation: TWriteLocation;

    FFarmIDs: TList;
    FRefEts: TList;
    FPrecip: TList;
    FCropIDs: TList;
    FEfficiencies: TList;
    FEfficiencyImprovements: TList;
    FBareRunoffFractions: TList;
    FBarePrecipitationConsumptionFractions: TList;
    FEvapBare: TList;
    FDirectRecharge: TList;
    FPrecipPotConsumption: TList;
    FNrdInfilLocation: TList;
    FLandUseAreaFraction: TList;
    FCropCoefficient: TList;

    FFarmWellID: Integer;
    FBaseName: string;

    FFID_FileStream: TFileStream;
    FOpenCloseFileStream: TFileStream;
    FPFLX_FileStream: TFileStream;
    FETR_FileStream: TFileStream;
    FCID_FileStream: TFileStream;
    FEFFICIENCY_FileStream: TFileStream;
    FEFFICIENCY_IMPROVEMENT_FileStream: TFileStream;
    FBARE_RUNOFF_FRACTION_FileStream: TFileStream;
    FBarePrecipitationConsumptionFractionFileStream: TFileStream;
    FSoil4: TFarmProcess4Soil;
    FCapillaryFringeFileStream: TFileStream;
    FSoilIdStream: TFileStream;
    FSurfaceKFileStream: TFileStream;
    FEvapBareFileStream: TFileStream;
    FDirectRechargeFileStream: TFileStream;
    FPrecipPotConsumptionFileStream: TFileStream;
    FNrdInfilLocationFileStream: TFileStream;
    FCropcoefficientFileStream: TFileStream;
    FLandUseAreaFractionFileStream: TFileStream;
    procedure WriteGobalDimension;
    procedure WriteOutput;
    procedure WriteWaterBalanceSubregion;
    procedure WriteSoil;
    procedure WriteClimate;
    procedure WriteSurfaceWater;
    procedure WriteSupplyWell;
    procedure WriteAllotments;
    procedure WriteLandUse;
    procedure WriteSalinityFlush;
    procedure WriteSurfaceWaterIrrigation;
    procedure WriteFileInternal;
    procedure EvaluateAll;

    procedure EvaluateFarmID;
    procedure WriteFarmLocation;

    procedure EvaluateCropID;
    procedure WriteLandUseLocation;

    procedure EvaluateReferenceET;
    procedure WriteRefET;

    procedure EvaluatePrecip;
    procedure WritePrecipitation;

    procedure EvaluateEfficiency;
    procedure WriteEfficiency;

    procedure EvaluateEfficiencyImprovement;
    procedure WriteEfficiencyImprovement;

    procedure EvaluateBareRunoffFraction;
    procedure WriteBareRunoffFraction;

    procedure EvaluateBarePrecipitationConsumptionFraction;
    procedure WriteBarePrecipitationConsumptionFraction;

    procedure EvaluateBareEvap;
    procedure WriteBareEvap;

    procedure EvaluateDirectRecharge;
    procedure WriteDirectRecharge;

    procedure EvaluatePrecipPotConsumption;
    procedure WritePrecipPotConsumption;

    procedure EvaluateNrdInfilLocation;
    procedure WriteNrdInfilLocation;

    procedure EvaluateLandUseAreaFraction;
    procedure WriteLandUseAreaFraction;

    procedure EvaluateCropCoefficient;
    procedure WriteCropCoefficient;

    procedure WriteCapillaryFringe;
    procedure WriteSoilID;
    procedure WriteSurfaceK;

    procedure FreeFileStreams;
    // wbs location
//    procedure WriteDataSet26(TimeIndex: Integer);
    procedure CheckDataSetZeroOrPositive(IntegerArray: TDataArray;
      const ErrorMessage: string);
    procedure CheckDataSetZeroOrGETen(IntegerArray: TDataArray;
      const ErrorMessage: string);
    procedure CheckDataSetBetweenZeroAndOne(RealArray: TDataArray;
      const ErrorMessage: string);
    procedure EvaluateActiveCells;
    procedure RemoveErrorAndWarningMessages;
    procedure WriteTransientFmpArrayData(RequiredValues: TRequiredValues);
    function GetTransientList(WriteLocation: TWriteLocation): TList;
    function GetFileStreamName(WriteLocation: TWriteLocation): string;
    function GetFmpBoundary(ScreenObject: TScreenObject;
      WriteLocation: TWriteLocation): TModflowBoundary;
    procedure EvaluateTransientArrayData(WriteLocation: TWriteLocation);
    procedure WriteFmpArrayData(AFileName: string; RequiredValues: TRequiredValues);
    procedure WriteLandUseArrayData(AFileName: string; RequiredValues: TRequiredValues);
    procedure UpdateDisplay(UpdateRequirements: TUpdateRequirements);
    function TransientCropUsed(Sender: TObject): Boolean;
    function TransientRefEtUsed(Sender: TObject): Boolean;
    procedure GetScaleFactorsAndExternalFile(RequiredValues: TRequiredValues; var UnitConversionScaleFactor: string; var ExternalFileName: string; var ExternalScaleFileName: string);
    procedure WriteScaleFactorsAndID(RequiredValues: TRequiredValues; UnitConversionScaleFactor: string; ExternalScaleFileName: string);
    procedure WriteLandUseOption;
  protected
    class function Extension: string; override;
    function Package: TModflowPackageSelection; override;
    function CellType: TValueCellType; override;
    function GetBoundary(ScreenObject: TScreenObject): TModflowBoundary;
      override;
    procedure WriteCell(Cell: TValueCell;
      const DataSetIdentifier, VariableIdentifiers: string); override;
    function ParameterType: TParameterType; override;
    procedure WriteParameterCells(CellList: TValueCellList; NLST: Integer;
      const VariableIdentifiers, DataSetIdentifier: string;
      AssignmentMethod: TUpdateMethod;
      MultiplierArrayNames: TTransientMultCollection;
      ZoneArrayNames: TTransientZoneCollection); override;
  public
    // @name creates and instance of @classname.
    Constructor Create(Model: TCustomModel; EvaluationType: TEvaluationType); override;
    destructor Destroy; override;
    procedure WriteFile(const AFileName: string);
    procedure WriteString(const Value: AnsiString); overload; override;
    procedure WriteConstantU2DINT(const Comment: string;
      const Value: integer; ArrayType: TModflowArrayType;
      const MF6_ArrayName: string); override;
    procedure WriteConstantU2DREL(const Comment: string;
      const Value: double; ArrayType: TModflowArrayType;
      const MF6_ArrayName: string); override;
    procedure UpdateFarmIDDisplay(TimeLists: TModflowBoundListOfTimeLists);
    procedure UpdateRefEtDisplay(TimeLists: TModflowBoundListOfTimeLists);
    procedure UpdatePrecipDisplay(TimeLists: TModflowBoundListOfTimeLists);
    procedure UpdateCropIDDisplay(TimeLists: TModflowBoundListOfTimeLists);
    procedure UpdateEfficiencyDisplay(TimeLists: TModflowBoundListOfTimeLists);
    procedure UpdateEfficiencyImprovementDisplay(
      TimeLists: TModflowBoundListOfTimeLists);
    procedure UpdateBareRunoffFractionDisplay(
      TimeLists: TModflowBoundListOfTimeLists);
    procedure UpdateBarePrecipitationConsumptionFractionDisplay(
      TimeLists: TModflowBoundListOfTimeLists);
    procedure UpdateEvapBareDisplay(TimeLists: TModflowBoundListOfTimeLists);
    procedure UpdateDirectRechargeDisplay(TimeLists: TModflowBoundListOfTimeLists);
    procedure UpdatePrecipPotConsumptionDisplay(TimeLists: TModflowBoundListOfTimeLists);
    procedure UpdateNrdInfilLocationDisplay(TimeLists: TModflowBoundListOfTimeLists);
    procedure UpdateLandUseAreaFractionDisplay(TimeLists: TModflowBoundListOfTimeLists);
    procedure UpdateCropCoefficentDisplay(TimeLists: TModflowBoundListOfTimeLists);
  end;

implementation

uses
  frmErrorsAndWarningsUnit, ModflowFmpWriterUnit,
  ModflowFmpFarmIdUnit, ModflowUnitNumbers, frmProgressUnit, ModflowFmpEvapUnit,
  ModflowFmpPrecipitationUnit;

resourcestring
  StrUndefinedError = 'Undefined %s in one or more stress periods';
  StrInvalidEfficiencyV = 'Invalid Efficiency value';
  StrInvalidEfficiencyI = 'Invalid Efficiency Improvement value';
  StrInvalidBareRunoff = 'Invalid Bare Runoff Fraction value';
  StrInvalidPrecipConsumpRunoff = 'Invalid Bare Precipitation Consumption Fraction value';
  StrInvalidCapillaryFringe = 'Invalid Capillary Fringe value';
  StrInvalidPotentialEv = 'Invalid Potential Evaporation Bare value';

{ TModflowFmp4Writer }

function TModflowFmp4Writer.CellType: TValueCellType;
begin
  result := TFmpWell_Cell;
end;

procedure TModflowFmp4Writer.CheckDataSetBetweenZeroAndOne(
  RealArray: TDataArray; const ErrorMessage: string);
var
  ColIndex: Integer;
  RowIndex: Integer;
begin
  Assert(RealArray <> nil);
  for RowIndex := 0 to Model.Grid.RowCount - 1 do
  begin
    for ColIndex := 0 to Model.Grid.ColumnCount - 1 do
    begin
      if FACtiveSurfaceCells[RowIndex, ColIndex] then
      begin
        if RealArray.IsValue[0, RowIndex, ColIndex] then
        begin
          if RealArray.DataType = rdtInteger then
          begin
            if (RealArray.IntegerData[0, RowIndex, ColIndex] < 0)
              or (RealArray.IntegerData[0, RowIndex, ColIndex] > 1) then
            begin
              frmErrorsAndWarnings.AddError(Model, ErrorMessage,
                Format(StrRow0dColumn, [RowIndex + 1, ColIndex + 1]));
            end;
          end
          else
          begin
            if (RealArray.RealData[0, RowIndex, ColIndex] < 0)
              or (RealArray.RealData[0, RowIndex, ColIndex] > 1) then
            begin
              frmErrorsAndWarnings.AddError(Model, ErrorMessage,
                Format(StrRow0dColumn, [RowIndex + 1, ColIndex + 1]));
            end;
          end;
        end;
      end;
    end;
  end;
end;

procedure TModflowFmp4Writer.CheckDataSetZeroOrGETen(IntegerArray: TDataArray;
  const ErrorMessage: string);
var
  ColIndex: Integer;
  RowIndex: Integer;
  Value: Integer;
begin
  Assert(IntegerArray <> nil);
  for RowIndex := 0 to Model.Grid.RowCount - 1 do
  begin
    for ColIndex := 0 to Model.Grid.ColumnCount - 1 do
    begin
      if FACtiveSurfaceCells[RowIndex, ColIndex] then
      begin
        if IntegerArray.IsValue[0, RowIndex, ColIndex] then
        begin
          if IntegerArray.DataType = rdtInteger then
          begin
            Value := IntegerArray.IntegerData[0, RowIndex, ColIndex];
            if not ((Value = 0) or (Value >= 10)) then
            begin
              frmErrorsAndWarnings.AddError(Model, ErrorMessage,
                Format(StrRow0dColumn, [RowIndex + 1, ColIndex + 1]));
            end;
          end
          else
          begin
            Assert(False);
          end;
        end;
      end;
    end;
  end;
end;

procedure TModflowFmp4Writer.CheckDataSetZeroOrPositive(IntegerArray: TDataArray;
  const ErrorMessage: string);
var
  ColIndex: Integer;
  RowIndex: Integer;
begin
  Assert(IntegerArray <> nil);
  for RowIndex := 0 to Model.Grid.RowCount - 1 do
  begin
    for ColIndex := 0 to Model.Grid.ColumnCount - 1 do
    begin
      if FACtiveSurfaceCells[RowIndex, ColIndex] then
      begin
        if IntegerArray.IsValue[0, RowIndex, ColIndex] then
        begin
          if IntegerArray.DataType = rdtInteger then
          begin
            if (IntegerArray.IntegerData[0, RowIndex, ColIndex] < 0) then
            begin
              frmErrorsAndWarnings.AddError(Model, ErrorMessage,
                Format(StrRow0dColumn, [RowIndex + 1, ColIndex + 1]));
            end;
          end
          else
          begin
            if (IntegerArray.RealData[0, RowIndex, ColIndex] < 0) then
            begin
              frmErrorsAndWarnings.AddError(Model, ErrorMessage,
                Format(StrRow0dColumn, [RowIndex + 1, ColIndex + 1]));
            end;
          end;
        end;
      end;
    end;
  end;
end;

constructor TModflowFmp4Writer.Create(Model: TCustomModel;
  EvaluationType: TEvaluationType);
begin
  inherited;
  FFarmIDs := TObjectList.Create;
  FRefEts := TObjectList.Create;
  FPrecip := TObjectList.Create;
  FCropIDs := TObjectList.Create;
  FEfficiencies := TObjectList.Create;
  FEfficiencyImprovements := TObjectList.Create;
  FBareRunoffFractions := TObjectList.Create;
  FBarePrecipitationConsumptionFractions := TObjectList.Create;
  FEvapBare := TObjectList.Create;
  FDirectRecharge := TObjectList.Create;
  FPrecipPotConsumption := TObjectList.Create;
  FNrdInfilLocation := TObjectList.Create;
  FLandUseAreaFraction := TObjectList.Create;
  FCropCoefficient := TObjectList.Create;

  FFarmProcess4 := Package as TFarmProcess4;
  FClimatePackage := Model.ModflowPackages.FarmClimate4;
  FLandUse := Model.ModflowPackages.FarmLandUse;
  FSoil4 := Model.ModflowPackages.FarmSoil4;
  FSurfaceWater4 := Model.ModflowPackages.FarmSurfaceWater4;
end;

destructor TModflowFmp4Writer.Destroy;
begin
  FreeFileStreams;

  FCropCoefficient.Free;
  FLandUseAreaFraction.Free;
  FNrdInfilLocation.Free;
  FPrecipPotConsumption.Free;
  FDirectRecharge.Free;
  FEvapBare.Free;
  FBarePrecipitationConsumptionFractions.Free;
  FBareRunoffFractions.Free;
  FEfficiencyImprovements.Free;
  FEfficiencies.Free;
  FCropIDs.Free;
  FPrecip.Free;
  FRefEts.Free;
  FFarmIDs.Free;
  inherited;
end;

procedure TModflowFmp4Writer.EvaluateActiveCells;
var
  RowIndex: Integer;
  LayerIndex: Integer;
  ActiveDataSet: TDataArray;
  ColumnIndex: Integer;
begin
  SetLength(FACtiveSurfaceCells, Model.Grid.RowCount, Model.Grid.ColumnCount);
  ActiveDataSet := Model.DataArrayManager.GetDataSetByName(rsActive);
  for RowIndex := 0 to Model.Grid.RowCount - 1 do
  begin
    for ColumnIndex := 0 to Model.Grid.ColumnCount - 1 do
    begin
      FACtiveSurfaceCells[RowIndex,ColumnIndex] := False;
      for LayerIndex := 0 to Model.Grid.LayerCount - 1 do
      begin
        FACtiveSurfaceCells[RowIndex,ColumnIndex] :=
          ActiveDataSet.BooleanData[LayerIndex, RowIndex, ColumnIndex];
        if FACtiveSurfaceCells[RowIndex,ColumnIndex] then
        begin
          break;
        end;
      end;
    end;
  end;
end;

procedure TModflowFmp4Writer.EvaluateAll;
begin
  EvaluateActiveCells;
  EvaluateFarmID;
  EvaluateReferenceET;
  EvaluatePrecip;
  EvaluateCropID;
  EvaluateEfficiency;
  EvaluateEfficiencyImprovement;
  EvaluateBareRunoffFraction;
  EvaluateBarePrecipitationConsumptionFraction;
  EvaluateBareEvap;
  EvaluateDirectRecharge;
  EvaluatePrecipPotConsumption;
  EvaluateNrdInfilLocation;
  EvaluateLandUseAreaFraction;
  EvaluateCropCoefficient;
end;

procedure TModflowFmp4Writer.EvaluateBareEvap;
begin
  if FClimatePackage.TransientBareEvapUsed(nil) then
  begin
    frmErrorsAndWarnings.RemoveErrorGroup(Model, StrInvalidPotentialEv);
    EvaluateTransientArrayData(wlBareEvap);
  end;
end;

procedure TModflowFmp4Writer.EvaluateBarePrecipitationConsumptionFraction;
begin
  if FFarmProcess4.TransientArrayBarePrecipitationConsumptionFractionDisplayUsed(nil) then
  begin
    frmErrorsAndWarnings.RemoveErrorGroup(Model, StrInvalidPrecipConsumpRunoff);
    EvaluateTransientArrayData(wlBarePrecipitationConsumptionFraction);
  end;
end;

procedure TModflowFmp4Writer.EvaluateBareRunoffFraction;
begin
  if FFarmProcess4.TransientArrayBareRunoffFractionDisplayUsed(nil) then
  begin
    frmErrorsAndWarnings.RemoveErrorGroup(Model, StrInvalidBareRunoff);
    EvaluateTransientArrayData(wlBareRunoffFraction);
  end;
end;

procedure TModflowFmp4Writer.EvaluateCropCoefficient;
begin
  if FLandUse.TransientCropCoefficientarrayUsed(nil) then
  begin
    frmErrorsAndWarnings.RemoveErrorGroup(Model, 'Invalid Crop Coefficient value');
    EvaluateTransientArrayData(wlCropCoefficient);
  end;
end;

procedure TModflowFmp4Writer.EvaluateCropID;
begin
  if FLandUse.CropLocation = rstTransient then
  begin
    frmErrorsAndWarnings.RemoveErrorGroup(Model, StrInvalidCropIDInF);
    EvaluateTransientArrayData(wlCID);
  end;
end;

procedure TModflowFmp4Writer.EvaluateDirectRecharge;
begin
  if FClimatePackage.TransientDirectRechargeUsed(nil) then
  begin
    frmErrorsAndWarnings.RemoveErrorGroup(Model, 'Invalid Direct Recharge value');
    EvaluateTransientArrayData(wlDirectRecharge);
  end;
end;

procedure TModflowFmp4Writer.EvaluateEfficiency;
begin
  if (FFarmProcess4.EfficiencyOptions.ArrayList = alArray)
    and (FFarmProcess4.EfficiencyOptions.FarmOption = foTransient) then
  begin
    frmErrorsAndWarnings.RemoveErrorGroup(Model, StrInvalidEfficiencyV);
    EvaluateTransientArrayData(wlEfficiency);
  end;

end;

procedure TModflowFmp4Writer.EvaluateEfficiencyImprovement;
begin
  if FFarmProcess4.TransientArrayEfficiencyImprovementUsed(nil) then
  begin
    frmErrorsAndWarnings.RemoveErrorGroup(Model, StrInvalidEfficiencyI);
    EvaluateTransientArrayData(wlEfficiencyImprovement);
  end;
end;

procedure TModflowFmp4Writer.EvaluateFarmID;
begin
  if FFarmProcess4.TransientFarmIdUsed(nil) then
  begin
    frmErrorsAndWarnings.RemoveErrorGroup(Model, StrInvalidFarmID);
    EvaluateTransientArrayData(wlFID);
  end;
end;

procedure TModflowFmp4Writer.EvaluateLandUseAreaFraction;
begin
  if FLandUse.TransientLandUseAreaFractionarrayUsed(nil) then
  begin
    frmErrorsAndWarnings.RemoveErrorGroup(Model, 'Invalid Land Use Area Fraction');
    EvaluateTransientArrayData(wlLandUseAreaFraction);
  end;
end;

procedure TModflowFmp4Writer.EvaluateNrdInfilLocation;
begin
  if FSurfaceWater4.TransientNrdInfilLocationUsed(nil) then
  begin
    frmErrorsAndWarnings.RemoveErrorGroup(Model, 'Invalid Non-Routed Delivery Infiltration Location in Farm Process');
    EvaluateTransientArrayData(wlNrdInfilLoc);
  end;
end;

procedure TModflowFmp4Writer.EvaluatePrecip;
begin
  if FClimatePackage.TransientPrecipUsed(Self) then
  begin
    EvaluateTransientArrayData(wlPFLX);
  end;
end;

procedure TModflowFmp4Writer.EvaluatePrecipPotConsumption;
begin
  if FClimatePackage.TransientPrecipPotConsumptionUsed(nil) then
  begin
    frmErrorsAndWarnings.RemoveErrorGroup(Model, 'Invalid Precipitation Potential Consumption value');
    EvaluateTransientArrayData(wlPrecipPotConsumption);
  end;
end;

procedure TModflowFmp4Writer.EvaluateReferenceET;
begin
  if FClimatePackage.TransientPrecipUsed(Self) then
  begin
    EvaluateTransientArrayData(wlETR);
  end;
end;

class function TModflowFmp4Writer.Extension: string;
begin
  Result := '.fmp';
end;

procedure TModflowFmp4Writer.FreeFileStreams;
begin
  FreeAndNil(FFID_FileStream);
  FreeAndNil(FOpenCloseFileStream);
  FreeAndNil(FPFLX_FileStream);
  FreeAndNil(FETR_FileStream);
  FreeAndNil(FCID_FileStream);
  FreeAndNil(FEFFICIENCY_FileStream);
  FreeAndNil(FEFFICIENCY_IMPROVEMENT_FileStream);
  FreeAndNil(FBARE_RUNOFF_FRACTION_FileStream);
  FreeAndNil(FBarePrecipitationConsumptionFractionFileStream);
  FreeAndNil(FCapillaryFringeFileStream);
  FreeAndNil(FSoilIdStream);
  FreeAndNil(FSurfaceKFileStream);
  FreeAndNil(FEvapBareFileStream);
  FreeAndNil(FDirectRechargeFileStream);
  FreeAndNil(FPrecipPotConsumptionFileStream);
  FreeAndNil(FNrdInfilLocationFileStream);
  FreeAndNil(FLandUseAreaFractionFileStream);
  FreeAndNil(FCropcoefficientFileStream);

end;

function TModflowFmp4Writer.GetBoundary(
  ScreenObject: TScreenObject): TModflowBoundary;
begin
  result := ScreenObject.ModflowFmpWellBoundary;
end;

function TModflowFmp4Writer.GetFileStreamName(WriteLocation: TWriteLocation): string;
begin
  case WriteLocation of
    wlMain:
      begin
      end;
    wlOpenClose:
      begin
      end;
    wlOFE:
      begin
      end;
    wlCID:
      begin
        RESULT := ChangeFileExt(FBaseName, '.CID');
        if FCID_FileStream = nil then
        begin
          FCID_FileStream := TFileStream.Create(RESULT,
            fmCreate or fmShareDenyWrite);
        end;
      end;
    wlFID:
      begin
        RESULT := ChangeFileExt(FBaseName, '.FID');
        if FFID_FileStream = nil then
        begin
          FFID_FileStream := TFileStream.Create(RESULT,
            fmCreate or fmShareDenyWrite);
        end;
      end;
    wlRoot:
      begin
      end;
    wlCropUse:
      begin
      end;
    wlETR:
      begin
        result := ChangeFileExt(FBaseName, '.ETR');
        if FETR_FileStream = nil then
        begin
          FETR_FileStream := TFileStream.Create(result,
            fmCreate or fmShareDenyWrite);
        end;
      end;
    wlEtFrac:
      begin
      end;
    wlSwLosses:
      begin
      end;
    wlPFLX:
      begin
        result := ChangeFileExt(FBaseName, '.PFLX');
        if FPFLX_FileStream = nil then
        begin
          FPFLX_FileStream := TFileStream.Create(result,
            fmCreate or fmShareDenyWrite);
        end;
      end;
    wlCropFunc:
      begin
      end;
    wlWaterCost:
      begin
      end;
    wlDeliveries:
      begin
      end;
    wlSemiRouteDeliv:
      begin
      end;
    wlSemiRouteReturn:
      begin
      end;
    wlCall:
      begin
      end;
    wlEfficiency:
      begin
        result := ChangeFileExt(FBaseName, '.EFFICIENCY');
        if FEFFICIENCY_FileStream = nil then
        begin
          FEFFICIENCY_FileStream := TFileStream.Create(result,
            fmCreate or fmShareDenyWrite);
        end;
      end;
    wlEfficiencyImprovement:
      begin
        result := ChangeFileExt(FBaseName, '.EFFICIENCY_IMPROVEMENT');
        if FEFFICIENCY_IMPROVEMENT_FileStream = nil then
        begin
          FEFFICIENCY_IMPROVEMENT_FileStream := TFileStream.Create(result,
            fmCreate or fmShareDenyWrite);
        end;
      end;
    wlBareRunoffFraction:
      begin
        result := ChangeFileExt(FBaseName, '.BARE_RUNOFF_FRACTION');
        if FBARE_RUNOFF_FRACTION_FileStream = nil then
        begin
          FBARE_RUNOFF_FRACTION_FileStream := TFileStream.Create(result,
            fmCreate or fmShareDenyWrite);
        end;
      end;
    wlBarePrecipitationConsumptionFraction:
      begin
        result := ChangeFileExt(FBaseName, '.BARE_PRECIPITATION_CONSUMPTION_FRACTION');
        if FBarePrecipitationConsumptionFractionFileStream = nil then
        begin
          FBarePrecipitationConsumptionFractionFileStream := TFileStream.Create(result,
            fmCreate or fmShareDenyWrite);
        end;
      end;
    wlCapillaryFringe:
      begin
        result := ChangeFileExt(FBaseName, '.CAPILLARY_FRINGE');
        if FCapillaryFringeFileStream = nil then
        begin
          FCapillaryFringeFileStream := TFileStream.Create(result,
            fmCreate or fmShareDenyWrite);
        end;
      end;
    wlSoilID:
      begin
        result := ChangeFileExt(FBaseName, '.SOIL_ID');
        if FSoilIdStream = nil then
        begin
          FSoilIdStream := TFileStream.Create(result,
            fmCreate or fmShareDenyWrite);
        end;
      end;
    wlSurfaceK:
      begin
        result := ChangeFileExt(FBaseName, '.SURFACE_VERTICAL_HYDRAULIC_CONDUCTIVITY');
        if FSurfaceKFileStream = nil then
        begin
          FSurfaceKFileStream := TFileStream.Create(result,
            fmCreate or fmShareDenyWrite);
        end;
      end;
    wlBareEvap:
      begin
        result := ChangeFileExt(FBaseName, '.POTENTIAL_EVAPORATION_BARE');
        if FEvapBareFileStream = nil then
        begin
          FEvapBareFileStream := TFileStream.Create(result,
            fmCreate or fmShareDenyWrite);
        end;
      end;
    wlDirectRecharge:
      begin
        result := ChangeFileExt(FBaseName, '.DIRECT_RECHARGE');
        if FDirectRechargeFileStream = nil then
        begin
          FDirectRechargeFileStream := TFileStream.Create(result,
            fmCreate or fmShareDenyWrite);
        end;
      end;
    wlPrecipPotConsumption:
      begin
        result := ChangeFileExt(FBaseName, '.PRECIPITATION_POTENTIAL_CONSUMPTION');
        if FPrecipPotConsumptionFileStream = nil then
        begin
          FPrecipPotConsumptionFileStream := TFileStream.Create(result,
            fmCreate or fmShareDenyWrite);
        end;
      end;
    wlNrdInfilLoc:
      begin
        result := ChangeFileExt(FBaseName, '.NRD_INFILTRATION_LOCATION');
        if FNrdInfilLocationFileStream = nil then
        begin
          FNrdInfilLocationFileStream := TFileStream.Create(result,
            fmCreate or fmShareDenyWrite);
        end;
      end;
    wlLandUseAreaFraction:
      begin
        result := ChangeFileExt(FBaseName, '.LAND_USE_AREA_FRACTION');
        if FLandUseAreaFractionFileStream = nil then
        begin
          FLandUseAreaFractionFileStream := TFileStream.Create(result,
            fmCreate or fmShareDenyWrite);
        end;
      end;
    wlCropCoefficient:
      begin
        result := ChangeFileExt(FBaseName, '.CROP_COEFFICIENT');
        if FCropcoefficientFileStream = nil then
        begin
          FCropcoefficientFileStream := TFileStream.Create(result,
            fmCreate or fmShareDenyWrite);
        end;
      end;
    else Assert(False);
  end;
end;

function TModflowFmp4Writer.GetFmpBoundary(ScreenObject: TScreenObject;
  WriteLocation: TWriteLocation): TModflowBoundary;
begin
  result := nil;
  case WriteLocation of
    wlMain: ;
    wlOpenClose: ;
    wlOFE: ;
    wlCID: result := ScreenObject.ModflowFmpCropID;
    wlFID: result := ScreenObject.ModflowFmpFarmID;
    wlRoot: ;
    wlCropUse: ;
    wlETR: result := ScreenObject.ModflowFmpRefEvap;
    wlEtFrac: ;
    wlSwLosses: ;
    wlPFLX: result := ScreenObject.ModflowFmpPrecip;
    wlCropFunc: ;
    wlWaterCost: ;
    wlDeliveries: ;
    wlSemiRouteDeliv: ;
    wlSemiRouteReturn: ;
    wlCall: ;
    wlEfficiency: result := ScreenObject.Fmp4EfficiencyBoundary;
    wlEfficiencyImprovement: result := ScreenObject.Fmp4EfficiencyImprovementBoundary;
    wlBareRunoffFraction: result := ScreenObject.Fmp4BareRunoffFractionBoundary;
    wlBarePrecipitationConsumptionFraction: result :=
      ScreenObject.Fmp4BarePrecipitationConsumptionFractionBoundary;
    wlCapillaryFringe: ;
    wlSoilID: ;
    wlSurfaceK: ;
    wlBareEvap: result := ScreenObject.ModflowFmpBareEvap;
    wlDirectRecharge: result := ScreenObject.ModflowFmpDirectRecharge;
    wlPrecipPotConsumption: result := ScreenObject.ModflowFmpPrecipPotConsumption;
    wlNrdInfilLoc: result := ScreenObject.ModflowFmp4NrdInfilLocationBoundary;
    wlLandUseAreaFraction: result := ScreenObject.ModflowFmp4LandUseAreaFraction;
    wlCropCoefficient: result := ScreenObject.ModflowFmp4CropCoefficient;
    else Assert(False);
  end;
end;

function TModflowFmp4Writer.GetTransientList(
  WriteLocation: TWriteLocation): TList;
begin
  result := nil;
  case WriteLocation of
    wlMain: ;
    wlOpenClose: ;
    wlOFE: ;
    wlCID: result := FCropIDs;
    wlFID: result := FFarmIDs;
    wlRoot: ;
    wlCropUse: ;
    wlETR: result := FRefEts;
    wlEtFrac: ;
    wlSwLosses: ;
    wlPFLX: result := FPrecip;
    wlCropFunc: ;
    wlWaterCost: ;
    wlDeliveries: ;
    wlSemiRouteDeliv: ;
    wlSemiRouteReturn: ;
    wlCall: ;
    wlEfficiency: result := FEfficiencies;
    wlEfficiencyImprovement: result := FEfficiencyImprovements;
    wlBareRunoffFraction: result := FBareRunoffFractions;
    wlBarePrecipitationConsumptionFraction: result := FBarePrecipitationConsumptionFractions;
    wlCapillaryFringe: ;
    wlSoilID: ;
    wlSurfaceK: ;
    wlBareEvap: result := FEvapBare;
    wlDirectRecharge: result := FDirectRecharge;
    wlPrecipPotConsumption: result := FPrecipPotConsumption;
    wlNrdInfilLoc: result := FNrdInfilLocation;
    wlLandUseAreaFraction: result := FLandUseAreaFraction;
    wlCropCoefficient: result := FCropCoefficient;
    else Assert(False)
  end;
end;

function TModflowFmp4Writer.Package: TModflowPackageSelection;
begin
  result := Model.ModflowPackages.FarmProcess4;
end;

function TModflowFmp4Writer.ParameterType: TParameterType;
begin
  result := ptUndefined;
  Assert(False);
end;

procedure TModflowFmp4Writer.RemoveErrorAndWarningMessages;
begin

end;

procedure TModflowFmp4Writer.UpdateBarePrecipitationConsumptionFractionDisplay(
  TimeLists: TModflowBoundListOfTimeLists);
var
  UpdateRequirements: TUpdateRequirements;
begin
  UpdateRequirements.EvaluateProcedure := EvaluateBarePrecipitationConsumptionFraction;
  UpdateRequirements.TransientDataUsed := (Package as TFarmProcess4).TransientArrayBarePrecipitationConsumptionFractionDisplayUsed;
  UpdateRequirements.WriteLocation := wlBarePrecipitationConsumptionFraction;
  UpdateRequirements.TimeLists := TimeLists;
  UpdateDisplay(UpdateRequirements);
end;

procedure TModflowFmp4Writer.UpdateBareRunoffFractionDisplay(
  TimeLists: TModflowBoundListOfTimeLists);
//var
//  DataSets: TList;