unit ModflowConstantHeadBoundaryUnit;

interface

uses Windows, ZLib, SysUtils, Classes, Contnrs, OrderedCollectionUnit,
  ModflowBoundaryUnit, ModflowCellUnit,
  FormulaManagerUnit, FormulaManagerInterfaceUnit,
  SubscriptionUnit, RbwParser, GoPhastTypes,
  ModflowTransientListParameterUnit, OrderedCollectionInterfaceUnit,
  Modflow6DynamicTimeSeriesInterfaceUnit;

type
  // @name stores data for one CHD cell in a time increment defined by
  // @link(StartingTime) and @link(EndingTime).
  // The @link(StartingTime) and @link(EndingTime) may or may not be
  // the starting and ending time of stress periods.
  // @member(Cell Cell is the cell to which this boundary applies.)
  // @member(StartingHead StartingHead is the specified head
  //   for this boundary at @link(StartingTime).)
  // @member(EndingHead EndingHead is the specified head
  //   for this boundary at @link(EndingTime). EndingHead is not used
  //   in MODFLOW 6.)
  // @member(StartingTime StartingTime is when this boundary
  //   first begins to apply.)
  // @member(EndingTime EndingTime is when this boundary ceases to apply.)
  // @member(StartAnnotation StartAnnotation tells how
  //  @link(StartingHead) was assigned.)
  // @member(EndAnnotation EndAnnotation tells how
  //  @link(EndingHead) was assigned.)
  // @member(HeadTimeSeriesName HeadTimeSeriesName is the name of a time
  //  series for MODFLOW 6.)
  TChdRecord = record
    Cell: TCellLocation;
    StartingHead: double;
    EndingHead: double;
    StartingTime: double;
    EndingTime: double;
    StartAnnotation: string;
    EndAnnotation: string;
//    TimeSeriesName: string;
    HeadParameterName: string;
    HeadParameterValue: double;
    // PEST
    StartHeadPest: string;
    EndHeadPest: string;
    StartHeadPestSeriesName: string;
    EndHeadPestSeriesName: string;
    HeadTimeSeriesName: string;
    StartHeadPestSeriesMethod: TPestParamMethod;
    EndHeadPestSeriesMethod: TPestParamMethod;
    // GWT Concentrations
    GwtConcentrations: TGwtCellData;
    procedure Assign(const Item: TChdRecord);
    procedure Cache(Comp: TCompressionStream; Strings: TStringList);
    procedure Restore(Decomp: TDecompressionStream; Annotations: TStringList);
    procedure RecordStrings(Strings: TStringList);
  end;

  TChdArray = array of TChdRecord;

  TChdStorage = class(TCustomBoundaryStorage)
  private
    FChdArray: TChdArray;
    function GetChdArray: TChdArray;
  protected
    procedure Restore(DecompressionStream: TDecompressionStream; Annotations: TStringList); override;
    procedure Store(Compressor: TCompressionStream); override;
    procedure Clear; override;
  public
    property ChdArray: TChdArray read GetChdArray;
  end;

  TChdTimeListLink = class(TTimeListsModelLink)
  private
    FStartData: TModflowTimeList;
    FEndData: TModflowTimeList;
    FConcList: TModflowTimeLists;
    procedure AddGwtTimeLists(SpeciesIndex: Integer);
    procedure RemoveGwtTimeLists(SpeciesIndex: Integer);
  protected
    procedure UpdateGwtTimeLists; override;
  protected
    procedure CreateTimeLists; override;
  public
    Destructor Destroy; override;
  end;

  TChdCollection = class;

  TChdGwtConcCollection = class(TGwtConcStringCollection)
    constructor Create(Model: TBaseModel; AScreenObject: TObject;
      ParentCollection: TChdCollection);
  end;

  // @name represents MODFLOW Constant-Head boundaries
  // for a series of time intervals.
  TChdCollection = class(TCustomMF_ListBoundColl)
  protected
    class function GetTimeListLinkClass: TTimeListsModelLinkClass; override;
    procedure InvalidateStartData(Sender: TObject);
    procedure InvalidateEndData(Sender: TObject);
    procedure InvalidateGwtConcentrations(Sender: TObject);
    { TODO -cRefactor : Consider replacing Model with an interface. }
    //
    procedure SetBoundaryStartAndEndTime(BoundaryCount: Integer;
      Item: TCustomModflowBoundaryItem; ItemIndex: Integer; AModel: TBaseModel); override;
    // @name returns @link(TChdItem).
    class function ItemClass: TBoundaryItemClass; override;
    { TODO -cRefactor : Consider replacing Model with an interface. }
    //
    procedure AddSpecificBoundary(AModel: TBaseModel); override;
    procedure AssignListCellLocation(BoundaryStorage: TCustomBoundaryStorage;
      ACellList: TObject); override;
    { TODO -cRefactor : Consider replacing Model with an interface. }
    //
    procedure AssignCellList(CellAssignmentData: TCellAssignmentData); override;
    function AdjustedFormula(FormulaIndex, ItemIndex: integer): string;
      override;
    procedure InvalidateModel; override;
  public
    { TODO -cRefactor : Consider replacing Model with an interface. }
    //
    constructor Create(Boundary: TModflowScreenObjectProperty;
      Model: IModelForTOrderedCollection; ScreenObject: TObject); override;
  end;

  // Each @name stores a @link(TChdCollection).
  // @classname is stored by @link(TModflowParameters).
  TChdParamItem = class(TModflowParamItem)
  protected
    class function BoundaryClass: TMF_BoundCollClass; override;
  end;
  
  // @name represents a MODFLOW Constant-Head boundary for one time interval.
  // @name is stored by TChdCollection.
  TChdItem = class(TCustomModflowBoundaryItem)
  private
    // See @link(EndHead).
    FEndHead: IFormulaObject;
    // See @link(StartHead).
    FStartHead: IFormulaObject;
    FGwtConcentrations: TChdGwtConcCollection;
    // See @link(EndHead).
    procedure SetEndHead(const Value: string);
    // See @link(StartHead).
    procedure SetStartHead(const Value: string);
    function GetEndHead: string;
    function GetStartHead: string;
    procedure SetGwtConcentrations(const Value: TChdGwtConcCollection);
  protected
    procedure RemoveFormulaObjects; override;
    procedure CreateFormulaObjects; override;
    procedure AssignObserverEvents(Collection: TCollection); override;
    procedure GetPropertyObserver(Sender: TObject; List: TList); override;
    // See @link(BoundaryFormula).
    function GetBoundaryFormula(Index: integer): string; override;
    // See @link(BoundaryFormula).
    procedure SetBoundaryFormula(Index: integer; const Value: string); override;
    // @name checks whether AnotherItem is the same as the current @classname.
    function IsSame(AnotherItem: TOrderedItem): boolean; override;
    procedure InvalidateModel; override;
    function BoundaryFormulaCount: integer; override;
  public
    // @name copies Source to this @classname.
    procedure Assign(Source: TPersistent);override;
    constructor Create(Collection: TCollection); override;
    Destructor Destroy; override;
  published
    // @name is the formula used to set the ending head
    // or the ending head multiplier of this boundary.
    property EndHead: string read GetEndHead write SetEndHead;
    // @name is the formula used to set the starting head
    // or the starting head multiplier of this boundary.
    property StartHead: string read GetStartHead write SetStartHead;
    property GwtConcentrations: TChdGwtConcCollection read FGwtConcentrations
      write SetGwtConcentrations;
  end;

  TCHD_Cell = class(TValueCell)
  private
    FValues: TChdRecord;
    StressPeriod: integer;
    function GetEndingHead: double;
    function GetStartingHead: double;
    function GetEndingHeadAnnotation: string;
    function GetStartingHeadAnnotation: string;
    function GetHeadParameterName: string;
    function GetHeadParameterValue: double;
    function GetEndHeadPest: string;
    function GetEndHeadPestSeriesMethod: TPestParamMethod;
    function GetEndHeadPestSeriesName: string;
    function GetStartHeadPest: string;
    function GetStartHeadPestSeriesMethod: TPestParamMethod;
    function GetStartHeadPestSeriesName: string;
    function GetHeadTimeSeriesName: string;
    procedure SetHeadTimeSeriesName(const Value: string);
    function GetConcentration(const Index: Integer): double;
    function GetConcentrationAnnotation(const Index: Integer): string;
    function GetConcentrationPestName(const Index: Integer): string;
    function GetConcentrationPestSeriesMethod(
      const Index: Integer): TPestParamMethod;
    function GetConcentrationPestSeriesName(const Index: Integer): string;
    function GetConcentrationTimeSeriesName(const Index: Integer): string;
  protected
    property Values: TChdRecord read FValues;
    function GetColumn: integer; override;
    function GetLayer: integer; override;
    function GetRow: integer; override;
    procedure SetColumn(const Value: integer); override;
    procedure SetLayer(const Value: integer); override;
    procedure SetRow(const Value: integer); override;
    { TODO -cRefactor : Consider replacing Model with an interface. }
    //
    function GetIntegerValue(Index: integer; AModel: TBaseModel): integer; override;
    { TODO -cRefactor : Consider replacing Model with an interface. }
    //
    function GetRealValue(Index: integer; AModel: TBaseModel): double; override;
    { TODO -cRefactor : Consider replacing Model with an interface. }
    //
    function GetRealAnnotation(Index: integer; AModel: TBaseModel): string; override;
    { TODO -cRefactor : Consider replacing Model with an interface. }
    //
    function GetIntegerAnnotation(Index: integer; AModel: TBaseModel): string; override;
    procedure Cache(Comp: TCompressionStream; Strings: TStringList); override;
    procedure Restore(Decomp: TDecompressionStream; Annotations: TStringList); override;
    function GetSection: integer; override;
    procedure RecordStrings(Strings: TStringList); override;
    function GetPestName(Index: Integer): string; override;
    function GetPestSeriesMethod(Index: Integer): TPestParamMethod; override;
    function GetPestSeriesName(Index: Integer): string; override;
    function GetMf6TimeSeriesName(Index: Integer): string; override;
    procedure SetMf6TimeSeriesName(Index: Integer; const Value: string); override;
  public
    property StartingHead: double read GetStartingHead;
    property EndingHead: double read GetEndingHead;
    property StartingHeadAnnotation: string read GetStartingHeadAnnotation;
    property EndingHeadAnnotation: string read GetEndingHeadAnnotation;
    function IsIdentical(AnotherCell: TValueCell): boolean; override;
    property HeadParameterName: string read GetHeadParameterName;
    property HeadParameterValue: double read GetHeadParameterValue;
    //PEST properties
    property StartHeadPest: string read GetStartHeadPest;
    property EndHeadPest: string read GetEndHeadPest;
    property StartHeadPestSeriesName: string read GetStartHeadPestSeriesName;
    property EndHeadPestSeriesName: string read GetEndHeadPestSeriesName;
    property StartHeadPestSeriesMethod: TPestParamMethod
      read GetStartHeadPestSeriesMethod;
    property EndHeadPestSeriesMethod: TPestParamMethod
      read GetEndHeadPestSeriesMethod;
    property HeadTimeSeriesName: string read GetHeadTimeSeriesName
      write SetHeadTimeSeriesName;
    // GWT
    property Concentrations[const Index: Integer]: double
      read GetConcentration;
    property ConcentrationAnnotations[const Index: Integer]: string
      read GetConcentrationAnnotation;
    property ConcentrationPestNames[const Index: Integer]: string
      read GetConcentrationPestName;
    property ConcentrationPestSeriesNames[const Index: Integer]: string
      read GetConcentrationPestSeriesName;
    property ConcentrationPestSeriesMethods[const Index: Integer]: TPestParamMethod
      read GetConcentrationPestSeriesMethod;
    property ConcentrationTimeSeriesNames[const Index: Integer]: string
      read GetConcentrationTimeSeriesName;
  end;


  // @name represents the MODFLOW Constant-Head boundaries associated with
  // a single @link(TScreenObject).
  //See also TChdCollection in implementation section
  // @seealso(TModflowParameters)
  TChdBoundary = class(TModflowParamBoundary)
  private
    FCurrentParameter: TModflowTransientListParameter;
    FPestStartingHeadMethod: TPestParamMethod;
    FPestEndingHeadMethod: TPestParamMethod;
    FPestStartingHeadFormula: IFormulaObject;
    FPestEndingHeadFormula: IFormulaObject;
    FPestEndingObserver: TObserver;
    FPestStartingObserver: TObserver;
    FUsedObserver: TObserver;
    FPestConcentrationMethods: TGwtPestMethodCollection;
    FPestConcentrationFormulas: TChdGwtConcCollection;
    FConcentrationObservers: TObserverList;
    function GetPestEndingHeadObserver: TObserver;
    function GetPestStartingHeadObserver: TObserver;
    function GetPestEndingHeadFormula: string;
    function GetPestStartingHeadFormula: string;
    procedure SetPestEndingHeadFormula(const Value: string);
    procedure SetPestEndingHeadMethod(const Value: TPestParamMethod);
    procedure SetPestStartingHeadFormula(const Value: string);
    procedure SetPestStartingHeadMethod(const Value: TPestParamMethod);
    procedure InvalidateStartingHeadData(Sender: TObject);
    procedure InvalidateEndingHeadData(Sender: TObject);
    procedure InvalidateConcData(Sender: TObject);
    procedure SetPestConcentrationFormulas(const Value: TChdGwtConcCollection);
    procedure SetPestConcentrationMethods(const Value: TGwtPestMethodCollection);
    function GetConcentrationObserver(const Index: Integer): TObserver;
  protected
    { TODO -cRefactor : Consider replacing Model with an interface. }
    //
    procedure AssignCells(BoundaryStorage: TCustomBoundaryStorage;
      ValueTimeList: TList; AModel: TBaseModel);  override;
    class function BoundaryCollectionClass: TMF_BoundCollClass; override;
    class function ModflowParamItemClass: TModflowParamItemClass; override;
    function ParameterType: TParameterType; override;

    procedure HandleChangedValue(Observer: TObserver); //override;
    function GetUsedObserver: TObserver; //override;
    procedure GetPropertyObserver(Sender: TObject; List: TList); override;
    procedure CreateFormulaObjects; //override;
    function BoundaryObserverPrefix: string; override;
    procedure CreateObservers; //override;
    property PestStartingHeadObserver: TObserver read GetPestStartingHeadObserver;
    property PestEndingHeadObserver: TObserver read GetPestEndingHeadObserver;
    property ConcentrationObserver[const Index: Integer]: TObserver
      read GetConcentrationObserver;
    function GetPestBoundaryFormula(FormulaIndex: integer): string; override;
    procedure SetPestBoundaryFormula(FormulaIndex: integer;
      const Value: string); override;
    function GetPestBoundaryMethod(FormulaIndex: integer): TPestParamMethod; override;
    procedure SetPestBoundaryMethod(FormulaIndex: integer;
      const Value: TPestParamMethod); override;
  public
    Constructor Create(Model: TBaseModel; ScreenObject: TObject);
    destructor Destroy; override;
    procedure Assign(Source: TPersistent);override;
    { TODO -cRefactor : Consider replacing Model with an interface. }
    //
    procedure GetCellValues(ValueTimeList: TList; ParamList: TStringList;
      AModel: TBaseModel; Writer: TObject); override;
    procedure InvalidateDisplay; override;
    class function DefaultBoundaryMethod(
      FormulaIndex: integer): TPestParamMethod; override;
  published
    property Interp;
    property PestStartingHeadFormula: string read GetPestStartingHeadFormula
      write SetPestStartingHeadFormula;
    property PestEndingHeadFormula: string read GetPestEndingHeadFormula
      write SetPestEndingHeadFormula;
    property PestStartingHeadMethod: TPestParamMethod read FPestStartingHeadMethod
      write SetPestStartingHeadMethod;
    property PestEndingHeadMethod: TPestParamMethod
      read FPestEndingHeadMethod write SetPestEndingHeadMethod;
    property PestConcentrationFormulas: TChdGwtConcCollection
      read FPestConcentrationFormulas write SetPestConcentrationFormulas;
    property PestConcentrationMethods: TGwtPestMethodCollection
      read FPestConcentrationMethods write SetPestConcentrationMethods;
  end;

const
  ChdStartHeadPosition = 0;
  ChdEndHeadPosition = 1;
  ChdStartConcentration = 2;

resourcestring
  StrCHDStartingHeadSe = 'CHD Starting Head set to zero because of a math er' +
  'ror';
  StrCHDEndingHeadSet = 'CHD Ending Head set to zero because of a math error';
  StrCHDConcentrationSe = 'CHD Concentration set to zero because of a math e' +
  'rror';

implementation

uses PhastModelUnit, ScreenObjectUnit, ModflowTimeUnit,
  frmGoPhastUnit, GIS_Functions,
  frmErrorsAndWarningsUnit;

resourcestring
  FormatString =
    'Assigned by interpolation between the starting head of %0:f at '
    + 't = %1:f (%2:s) and the ending head of %3:f at t = %4:f (%5:s).';
  StrStartingHeadMulti = ' starting head multiplier';
  StrEndingHeadMultipl = ' ending head multiplier';
  StrNoValidCHDBoundar = 'No valid CHD boundary times defined.';
  StrNoValidCHDBoundar2 = 'No valid CHD boundary times are defined for the p' +
  'arameter ';


{ TChdItem }

procedure TChdItem.Assign(Source: TPersistent);
var
  Chd: TChdItem;
begin
  // if Assign is updated, update IsSame too.
  if Source is TChdItem then
  begin
    Chd := TChdItem(Source);
    StartHead := Chd.StartHead;
    EndHead := Chd.EndHead;
    GwtConcentrations := Chd.GwtConcentrations;
  end;
  inherited;
end;

procedure TChdItem.RemoveFormulaObjects;
begin
  frmGoPhast.PhastModel.FormulaManager.Remove(FStartHead,
    GlobalRemoveModflowBoundaryItemSubscription, GlobalRestoreModflowBoundaryItemSubscription, self);
  frmGoPhast.PhastModel.FormulaManager.Remove(FEndHead,
    GlobalRemoveModflowBoundaryItemSubscription, GlobalRestoreModflowBoundaryItemSubscription, self);
end;

constructor TChdItem.Create(Collection: TCollection);
var
  ChdCol: TChdCollection;
begin
  ChdCol := Collection as TChdCollection;
  FGwtConcentrations := TChdGwtConcCollection.Create(Model as TCustomModel, ScreenObject,
    ChdCol);
  inherited;
end;

procedure TChdItem.CreateFormulaObjects;
begin
  FStartHead := CreateFormulaObject(dso3D);
  FEndHead := CreateFormulaObject(dso3D);
end;

destructor TChdItem.Destroy;
begin
  FGwtConcentrations.Free;
  StartHead := '0';
  EndHead := '0';
  inherited;
end;

procedure TChdItem.AssignObserverEvents(Collection: TCollection);
var
  EndObserver: TObserver;
  StartObserver: TObserver;
  ParentCollection: TChdCollection;
  ConcIndex: Integer;
begin
  ParentCollection := Collection as TChdCollection;
  StartObserver := FObserverList[ChdStartHeadPosition];
  StartObserver.OnUpToDateSet := ParentCollection.InvalidateStartData;
  EndObserver := FObserverList[ChdEndHeadPosition];
  EndObserver.OnUpToDateSet := ParentCollection.InvalidateEndData;
  for ConcIndex := 0 to GwtConcentrations.Count - 1 do
  begin
    GwtConcentrations[ConcIndex].Observer.OnUpToDateSet
      := ParentCollection.InvalidateGwtConcentrations;
  end;
end;

function TChdItem.BoundaryFormulaCount: integer;
begin
  result := 2;
  if GwtConcentrations <> nil then
  begin
    if (Model <> nil) and Model.GwtUsed then
    begin
      GwtConcentrations.Count := (Model as TCustomModel).MobileComponents.Count;
    end;
    if frmGoPhast.PhastModel.GwtUsed then
    begin
      result := result + GwtConcentrations.Count;
    end;
  end;
end;

function TChdItem.GetBoundaryFormula(Index: integer): string;
var
  Item: TGwtConcStringValueItem;
begin
  case Index of
    ChdStartHeadPosition: result := StartHead;
    ChdEndHeadPosition: result := EndHead;
    else
      begin
        Dec(Index, 2);
        while GwtConcentrations.Count <= Index do
        begin
          GwtConcentrations.Add;
        end;
        Item := GwtConcentrations[Index];
        result := Item.Value;
      end;
  end;
end;

function TChdItem.GetEndHead: string;
begin
  Result := FEndHead.Formula;
  ResetItemObserver(ChdEndHeadPosition);
end;

procedure TChdItem.GetPropertyObserver(Sender: TObject; List: TList);
var
  ConcIndex: Integer;
  Item: TGwtConcStringValueItem;
begin
  if Sender = FStartHead as TObject then
  begin
    List.Add(FObserverList[ChdStartHeadPosition]);
  end;
  if Sender = FEndHead as TObject then
  begin
    List.Add(FObserverList[ChdEndHeadPosition]);
  end;
  for ConcIndex := 0 to GwtConcentrations.Count - 1 do
  begin
    Item := GwtConcentrations.Items[ConcIndex];
    if (Item.ValueObject as TObject) = Sender then
    begin
      List.Add(Item.Observer);
    end;
  end;
end;

function TChdItem.GetStartHead: string;
begin
  Result := FStartHead.Formula;
  ResetItemObserver(ChdStartHeadPosition);
end;

procedure TChdItem.InvalidateModel;
var
  PhastModel: TPhastModel;
begin
  inherited;
  PhastModel := Model as TPhastModel;
  if (PhastModel <> nil)
    and not (csDestroying in PhastModel.ComponentState)
    and not PhastModel.Clearing then
  begin
    PhastModel.InvalidateMfChdStartingHead(self);
    PhastModel.InvalidateMfChdEndingHead(self);
    PhastModel.InvalidateMfChdConc(self);
  end;
end;

function TChdItem.IsSame(AnotherItem: TOrderedItem): boolean;
var
  Item: TChdItem;
begin
  result := (AnotherItem is TChdItem) and inherited IsSame(AnotherItem);
  if result then
  begin
    Item := TChdItem(AnotherItem);
    result := (Item.EndHead = EndHead)
      and (Item.StartHead = StartHead)
      and (Item.GwtConcentrations.IsSame(GwtConcentrations));
  end;
end;

{ TChdParamItem }
procedure TChdItem.SetBoundaryFormula(Index: integer; const Value: string);
var
  Item: TGwtConcStringValueItem;
begin
  inherited;
  case Index of
    ChdStartHeadPosition: StartHead := Value;
    ChdEndHeadPosition: EndHead := Value;
    else
      begin
        Dec(Index, 2);
        while Index >= GwtConcentrations.Count do
        begin
          GwtConcentrations.Add;
        end;
        Item := GwtConcentrations[Index];
        Item.Value := Value;
      end;
  end;
end;

procedure TChdItem.SetEndHead(const Value: string);
begin
  UpdateFormulaBlocks(Value, ChdEndHeadPosition, FEndHead);
end;

procedure TChdItem.SetGwtConcentrations(const Value: TChdGwtConcCollection);
begin
  FGwtConcentrations.Assign(Value);
end;

procedure TChdItem.SetStartHead(const Value: string);
begin
  UpdateFormulaBlocks(Value, ChdStartHeadPosition, FStartHead);
end;

{ TChdParamItem }

class function TChdParamItem.BoundaryClass: TMF_BoundCollClass;
begin
  result := TChdCollection;
end;

{ TChdCollection }

class function TChdCollection.GetTimeListLinkClass: TTimeListsModelLinkClass;
begin
  result := TChdTimeListLink;
end;

procedure TChdCollection.AddSpecificBoundary(AModel: TBaseModel);
begin
  AddBoundary(TChdStorage.Create(AModel));
end;

function TChdCollection.AdjustedFormula(FormulaIndex,
  ItemIndex: integer): string;
var
  Item: TChdItem;
begin
  Item := Items[ItemIndex] as TChdItem;
  result := Item.BoundaryFormula[FormulaIndex];
end;

procedure TChdCollection.AssignCellList(CellAssignmentData: TCellAssignmentData);
var
  ChdStorage: TChdStorage;
  CellList: TCellAssignmentList;
  Index: Integer;
  ACell: TCellAssignment;
  ConcIndex: Integer;
  ErrorMessage: string;
  LocalScreenObject: TScreenObject;
  Expression: TExpression;
  ACellList: TObject;
  BoundaryStorage: TCustomBoundaryStorage;
  BoundaryFunctionIndex: integer;
  Variables, DataSets: TList;
  AModel: TBaseModel;
  AScreenObject: TObject;
  PestName: string;
  PestSeriesName: string;
  PestSeriesMethod: TPestParamMethod;
  TimeSeriesName: string;
  DynamicTimeSeries: IDynamicTimeSeries;
begin
  Expression := CellAssignmentData.Expression;
  ACellList := CellAssignmentData.ACellList;
  BoundaryStorage := CellAssignmentData.BoundaryStorage;
  BoundaryFunctionIndex := CellAssignmentData.BoundaryFunctionIndex;
  Variables := CellAssignmentData.Variables;
  DataSets := CellAssignmentData.DataSets;
  AModel := CellAssignmentData.AModel;
  AScreenObject := CellAssignmentData.AScreenObject;
  PestName := CellAssignmentData.PestName;
  PestSeriesName := CellAssignmentData.PestSeriesName;
  PestSeriesMethod := CellAssignmentData.PestSeriesMethod;
  TimeSeriesName := CellAssignmentData.TimeSeriesName;
  DynamicTimeSeries := CellAssignmentData.DynamicTimeSeries;

  BoundaryGroup.Mf6TimeSeriesNames.Add(TimeSeriesName);
  Assert(Expression <> nil);

  ChdStorage := BoundaryStorage as TChdStorage;
  CellList := ACellList as TCellAssignmentList;
  for Index := 0 to CellList.Count - 1 do
  begin
    ACell := CellList[Index];
    UpdateCurrentScreenObject(AScreenObject as TScreenObject);
    UpdateRequiredListData(DataSets, Variables, ACell, AModel);
    try
      Expression.Evaluate;
      with ChdStorage.ChdArray[Index] do
      begin
        case BoundaryFunctionIndex of
          0:
            begin
              StartingHead := Expression.DoubleResult;
              StartAnnotation := ACell.Annotation;
              StartHeadPest := PestName;
              StartHeadPestSeriesName := PestSeriesName;
              StartHeadPestSeriesMethod := PestSeriesMethod;
              HeadTimeSeriesName := TimeSeriesName;
            end;
          1:
            begin
              EndingHead := Expression.DoubleResult;
              EndAnnotation := ACell.Annotation;
              EndHeadPest := PestName;
              EndHeadPestSeriesName := PestSeriesName;
              EndHeadPestSeriesMethod := PestSeriesMethod;
            end;
          else
            begin
              ConcIndex := BoundaryFunctionIndex - ChdStartConcentration;
              GwtConcentrations.Values[ConcIndex] := Expression.DoubleResult;
              GwtConcentrations.ValueAnnotations[ConcIndex] := ACell.Annotation;;
              GwtConcentrations.ValuePestNames[ConcIndex] := PestName;
              GwtConcentrations.ValuePestSeriesNames[ConcIndex] := PestSeriesName;
              GwtConcentrations.ValuePestSeriesMethods[ConcIndex] := PestSeriesMethod;
              GwtConcentrations.ValueTimeSeriesNames[ConcIndex] := TimeSeriesName;
            end;
        end;
      end;
    except
      on E: EMathError do
      begin
        with ChdStorage.ChdArray[Index] do
        begin
          case BoundaryFunctionIndex of
            0:
              begin
                ErrorMessage :=   StrCHDStartingHeadSe;
                StartingHead := 0;
                StartAnnotation := ErrorMessage;
                StartHeadPest := PestName;
                StartHeadPestSeriesName := PestSeriesName;
                StartHeadPestSeriesMethod := PestSeriesMethod;
                HeadTimeSeriesName := TimeSeriesName;
              end;
            1:
              begin
                ErrorMessage :=  StrCHDEndingHeadSet;
                EndingHead := 0;
                EndAnnotation := ErrorMessage;
                EndHeadPest := PestName;
                EndHeadPestSeriesName := PestSeriesName;
                EndHeadPestSeriesMethod := PestSeriesMethod;
              end;
            else
              begin
                ErrorMessage := StrCHDConcentrationSe;
                ConcIndex := BoundaryFunctionIndex - ChdStartConcentration;
                GwtConcentrations.Values[ConcIndex] := 0;
                GwtConcentrations.ValueAnnotations[ConcIndex] := ErrorMessage;
                GwtConcentrations.ValuePestNames[ConcIndex] := PestName;
                GwtConcentrations.ValuePestSeriesNames[ConcIndex] := PestSeriesName;
                GwtConcentrations.ValuePestSeriesMethods[ConcIndex] := PestSeriesMethod;
                GwtConcentrations.ValueTimeSeriesNames[ConcIndex] := TimeSeriesName;
              end;
          end;
        end;
        LocalScreenObject := ScreenObject as TScreenObject;

        frmErrorsAndWarnings.AddError(AModel, ErrorMessage,
          Format(StrObject0sLayerError,
          [LocalScreenObject.Name, ACell.Layer+1, ACell.Row+1,
          ACell.Column+1, E.Message]), LocalScreenObject);
      end;
      on E: ERbwParserError do
      begin
        with ChdStorage.ChdArray[Index] do
        begin
          case BoundaryFunctionIndex of
            0:
              begin
                ErrorMessage :=   StrCHDStartingHeadSe;
                StartingHead := 0;
                StartAnnotation := ErrorMessage;
                StartHeadPest := PestName;
                StartHeadPestSeriesName := PestSeriesName;
                StartHeadPestSeriesMethod := PestSeriesMethod;
                HeadTimeSeriesName := TimeSeriesName;
              end;
            1:
              begin
                ErrorMessage :=  StrCHDEndingHeadSet;
                EndingHead := 0;
                EndAnnotation := ErrorMessage;
                EndHeadPest := PestName;
                EndHeadPestSeriesName := PestSeriesName;
                EndHeadPestSeriesMethod := PestSeriesMethod;
              end;
            else
              begin
                ErrorMessage := StrCHDConcentrationSe;
                ConcIndex := BoundaryFunctionIndex - ChdStartConcentration;
                GwtConcentrations.Values[ConcIndex] := 0;
                GwtConcentrations.ValueAnnotations[ConcIndex] := ErrorMessage;
                GwtConcentrations.ValuePestNames[ConcIndex] := PestName;
                GwtConcentrations.ValuePestSeriesNames[ConcIndex] := PestSeriesName;
                GwtConcentrations.ValuePestSeriesMethods[ConcIndex] := PestSeriesMethod;
                GwtConcentrations.ValueTimeSeriesNames[ConcIndex] := TimeSeriesName;
              end;
          end;
        end;
        LocalScreenObject := ScreenObject as TScreenObject;

        frmErrorsAndWarnings.AddError(AModel, ErrorMessage,
          Format(StrObject0sLayerError,
          [LocalScreenObject.Name, ACell.Layer+1, ACell.Row+1,
          ACell.Column+1, E.Message]), LocalScreenObject);
      end;
    end;
  end;
end;

procedure TChdCollection.AssignListCellLocation(
  BoundaryStorage: TCustomBoundaryStorage; ACellList: TObject);
var
  ChdStorage: TChdStorage;
  CellList: TCellAssignmentList;
  Index: Integer;
  ACell: TCellAssignment;
begin
  ChdStorage := BoundaryStorage as TChdStorage;
  CellList := ACellList as TCellAssignmentList;
  for Index := 0 to CellList.Count - 1 do
  begin
    ACell := CellList[Index];