unit ModflowGwtSpecifiedConcUnit;

interface

uses Windows, ZLib, SysUtils, Classes, OrderedCollectionUnit,
  ModflowBoundaryUnit, ModflowCellUnit, FormulaManagerUnit, FormulaManagerInterfaceUnit,
  SubscriptionUnit, RbwParser, GoPhastTypes,
  System.Generics.Collections, Mt3dmsChemSpeciesUnit,
  Modflow6DynamicTimeSeriesInterfaceUnit, System.Math;

type
  {
    @name stores, the location, time and specifiec concentration for a CNC
    boundary in GWT.
  }
  TCncRecord = record
    Cell: TCellLocation;
    Active: Boolean;
    Concentration: double;
    StartingTime: double;
    EndingTime: double;
    ActiveAnnotation: string;
    ConcentrationAnnotation: string;
    ConcentrationPest: string;
    ConcentrationPestSeriesName: string;
    ConcentrationPestSeriesMethod: TPestParamMethod;
    ConcentrationTimeSeriesName: string;
    // MF6
    Multiplier: double;
    MultiplierAnnotation: string;
    MultiplierPest: string;
    MultiplierPestSeriesName: string;
    MultiplierPestSeriesMethod: TPestParamMethod;
    MultiplierTimeSeriesName: string;
    procedure Cache(Comp: TCompressionStream; Strings: TStringList);
    procedure Restore(Decomp: TDecompressionStream; Annotations: TStringList);
    procedure RecordStrings(Strings: TStringList);
  end;

  TCncArray = array of TCncRecord;

  // @name extends @link(TCustomBoundaryStorage) by adding the locations
  // and values of series of specified concentrations.
  TCncStorage = class(TCustomBoundaryStorage)
  private
    FCncArray: TCncArray;
    function GetCncArray: TCncArray;
  protected
    procedure Restore(DecompressionStream: TDecompressionStream; Annotations: TStringList); override;
    procedure Store(Compressor: TCompressionStream); override;
    procedure Clear; override;
  public
    property CncArray: TCncArray read GetCncArray;
  end;

  // @name represents a MODFLOW specified concentration or mass flux
  // for one time interval.
  // @name is stored by @link(TCncCollection or TSrcCollection).
  TCncItem = class(TCustomModflowBoundaryItem)
  private
    // See @link(Concentration).
    FConcentration: IFormulaObject;
    FMultiplier: IFormulaObject;
    FActive: IFormulaObject;
    // See @link(Concentration).
    procedure SetConcentration(const Value: string);
    function GetConcentration: string;
    procedure SetMultiplier(const Value: string);
    function GetMultiplier: string;
    procedure SetActive(const Value: string);
    function GetActive: string;
  protected
    procedure AssignObserverEvents(Collection: TCollection); override;
    procedure CreateFormulaObjects; override;
    procedure GetPropertyObserver(Sender: TObject; List: TList); override;
    procedure RemoveFormulaObjects; override;
    // See @link(BoundaryFormula).
    function GetBoundaryFormula(Index: integer): string; override;
    // See @link(BoundaryFormula).
    procedure SetBoundaryFormula(Index: integer; const Value: string); override;
    // @name checks whether AnotherItem is the same as the current @classname.
    function IsSame(AnotherItem: TOrderedItem): boolean; override;
    procedure InvalidateModel; override;
    function BoundaryFormulaCount: integer; override;
  public
    constructor Create(Collection: TCollection); override;
    Destructor Destroy; override;
    // @name copies Source to this @classname.
    procedure Assign(Source: TPersistent);override;
  published
    // @name is the formula used to set the pumping rate
    // or the pumping rate multiplier of this boundary.
    property Active: string read GetActive write SetActive;
    property Concentration: string read GetConcentration write SetConcentration;
    property Multiplier: string read GetMultiplier write SetMultiplier;
  end;

  TCncTimeListLink = class(TTimeListsModelLink)
  private
    // @name is used to compute the specified concentration
    // or mass flux for a series of
    // boundaries over a series of time intervals.
    FActiveData: TModflowTimeList;
    FConcentrationData: TModflowTimeList;
    FMultiplierData: TModflowTimeList;
    FInvalidateEvent: TNotifyEvent;
    FActiveList: TModflowTimeLists;
    FConcList: TModflowTimeLists;
    FMultiplierList: TModflowTimeLists;
  protected
    procedure CreateTimeLists; override;
    function Description: string; virtual;
    procedure AssignInvalidateEvent; virtual;
    procedure AssignMultInvalidateEvent; virtual;
    procedure AssignActiveInvalidateEvent; virtual;
    property InvalidateEvent: TNotifyEvent read FInvalidateEvent write FInvalidateEvent;
    procedure UpdateGwtTimeLists; override;
    procedure AddGwtTimeLists(SpeciesIndex: Integer);
    procedure RemoveGwtTimeLists(SpeciesIndex: Integer);
  public
    Constructor Create(AModel: TBaseModel; ABoundary: TCustomMF_BoundColl); override;
    Destructor Destroy; override;
  end;

  // @name represents MODFLOW 6 specified concentration boundaries
  // for a series of time intervals.
  TCncCollection = class(TCustomMF_ListBoundColl)
  private
    procedure InvalidateGwtConcentrationsActive(Sender: TObject);
    procedure InvalidateGwtConcentrations(Sender: TObject);
    procedure InvalidateGwtMultipliers(Sender: TObject);
  protected
    class function GetTimeListLinkClass: TTimeListsModelLinkClass; override;
    function AdjustedFormula(FormulaIndex, ItemIndex: integer): string; override;
    procedure AddSpecificBoundary(AModel: TBaseModel); override;

    // See @link(TCustomNonSpatialBoundColl.ItemClass
    // TCustomNonSpatialBoundColl.ItemClass)
    class function ItemClass: TBoundaryItemClass; override;
    // @name calls inherited @name and then sets the length of
    // the @link(TCncStorage.CncArray) at ItemIndex in
    // @link(TCustomMF_BoundColl.Boundaries) to BoundaryCount.
    // @SeeAlso(TCustomMF_BoundColl.SetBoundaryStartAndEndTime
    // TCustomMF_BoundColl.SetBoundaryStartAndEndTime)
    procedure SetBoundaryStartAndEndTime(BoundaryCount: Integer;
      Item: TCustomModflowBoundaryItem; ItemIndex: Integer; AModel: TBaseModel); override;
    procedure InvalidateModel; override;
    procedure AssignListCellLocation(BoundaryStorage: TCustomBoundaryStorage;
      ACellList: TObject); override;
    procedure AssignCellList(CellAssignmentData: TCellAssignmentData); override;
    function OkListDataTypes(BoundaryIndex: Integer): TRbwDataTypes; override;
  end;

  TCnc_Cell = class(TValueCell)
  private
    FValues: TCncRecord;
    StressPeriod: integer;
    function GetConcentration: double;
    function GetConcentrationAnnotation: string;
    function GetConcentrationPest: string;
    function GetConcentrationPestSeriesMethod: TPestParamMethod;
    function GetConcentrationPestSeriesName: string;
    function GetConcentrationTimeSeriesName: string;
    procedure SetConcentrationTimeSeriesName(const Value: string);
    function GetMultiplier: double;
    function GetMultiplierAnnotation: string;
    function GetMultiplierPest: string;
    function GetMultiplierPestSeriesMethod: TPestParamMethod;
    function GetMultiplierPestSeriesName: string;
    function GetMultiplierTimeSeriesName: string;
    procedure SetMultiplierTimeSeriesName(const Value: string);
    function GetActive: Boolean;
    function GetActiveAnnotation: String;
  protected
    property Values: TCncRecord read FValues;
    function GetColumn: integer; override;
    function GetLayer: integer; override;
    function GetRow: integer; override;
    procedure SetColumn(const Value: integer); override;
    procedure SetLayer(const Value: integer); override;
    procedure SetRow(const Value: integer); override;
    function GetBooleanValue(Index: integer; AModel: TBaseModel): Boolean; override;
    function GetIntegerValue(Index: integer; AModel: TBaseModel): integer; override;
    function GetRealValue(Index: integer; AModel: TBaseModel): double; override;
    function GetRealAnnotation(Index: integer; AModel: TBaseModel): string; override;
    function GetIntegerAnnotation(Index: integer; AModel: TBaseModel): string; override;
    function GetBooleanAnnotation(Index: integer; AModel: TBaseModel): string; override;
    procedure Cache(Comp: TCompressionStream; Strings: TStringList); override;
    procedure Restore(Decomp: TDecompressionStream; Annotations: TStringList); override;
    function GetSection: integer; override;
    procedure RecordStrings(Strings: TStringList); override;
    function GetPestName(Index: Integer): string; override;
    function GetPestSeriesMethod(Index: Integer): TPestParamMethod; override;
    function GetPestSeriesName(Index: Integer): string; override;
    function GetMf6TimeSeriesName(Index: Integer): string; override;
    procedure SetMf6TimeSeriesName(Index: Integer; const Value: string); override;
    // MF6
    property Multiplier: double read GetMultiplier;
    property MultiplierAnnotation: string read GetMultiplierAnnotation;
    property MultiplierPest: string read GetMultiplierPest;
    property MultiplierPestSeries: string read GetMultiplierPestSeriesName;
    property MultiplierPestSeriesMethod: TPestParamMethod
      read GetMultiplierPestSeriesMethod;
    property MultiplierTimeSeriesName: string read GetMultiplierTimeSeriesName
      write SetMultiplierTimeSeriesName;
  public
    function IsIdentical(AnotherCell: TValueCell): boolean; override;
    property Active: Boolean read GetActive;
    property ActiveAnnotation: String read GetActiveAnnotation;
    property Concentration: double read GetConcentration;
    property ConcentrationAnnotation: string read GetConcentrationAnnotation;
    // PEST parameters
    property ConcentrationPest: string read GetConcentrationPest;
    property ConcentrationPestSeries: string read GetConcentrationPestSeriesName;
    property ConcentrationPestSeriesMethod: TPestParamMethod
      read GetConcentrationPestSeriesMethod;
    // Time Series
    property ConcentrationTimeSeriesName: string read GetConcentrationTimeSeriesName
      write SetConcentrationTimeSeriesName;
  end;

  TCncBoundary = class(TModflowBoundary)
  private
    FPestConcentrationMethod: TPestParamMethod;
    FPestConcentrationFormula: IFormulaObject;
    FPestConcentrationObserver: TObserver;
    FPestMultiplierMethod: TPestParamMethod;
    FPestMultiplierFormula: IFormulaObject;
    FPestMultiplierObserver: TObserver;
    FUsedObserver: TObserver;
    FChemSpecies: TChemSpeciesItem;
    FChemSpeciesName: string;
    function GetPestConcentrationFormula: string;
    procedure SetPestConcentrationFormula(const Value: string);
    procedure SetPestConcentrationMethod(const Value: TPestParamMethod);
    function GetPestConcentrationObserver: TObserver;
    function GetPestMultiplierFormula: string;
    procedure SetPestMultiplierFormula(const Value: string);
    procedure SetPestMultiplierMethod(const Value: TPestParamMethod);
    function GetPestMultiplierObserver: TObserver;
    function GetChemSpecies: string;
    procedure SetChemSpecies(const Value: string);
  protected
    procedure InvalidateActiveData(Sender: TObject); virtual;
    procedure InvalidateConcentrationData(Sender: TObject); virtual;
    procedure InvalidateMultiplierData(Sender: TObject); virtual;
    // @name fills ValueTimeList with a series of TObjectLists - one for
    // each stress period.  Each such TObjectList is filled with
    // @link(TWell_Cell)s for that stress period.
    procedure AssignCells(BoundaryStorage: TCustomBoundaryStorage;
      ValueTimeList: TList; AModel: TBaseModel); override;
    // See @link(TModflowBoundary.BoundaryCollectionClass
    // TModflowBoundary.BoundaryCollectionClass).
    class function BoundaryCollectionClass: TMF_BoundCollClass; override;
    // See @link(TModflowParamBoundary.ModflowParamItemClass
    // TModflowParamBoundary.ModflowParamItemClass).

    procedure HandleChangedValue(Observer: TObserver); //override;
    function GetUsedObserver: TObserver; //override;
    procedure GetPropertyObserver(Sender: TObject; List: TList); override;
    procedure CreateFormulaObjects; //override;
    function BoundaryObserverPrefix: string; override;
    procedure CreateObservers; //override;
    property PestConcentrationObserver: TObserver
      read GetPestConcentrationObserver;
    function GetPestBoundaryFormula(FormulaIndex: integer): string; override;
    procedure SetPestBoundaryFormula(FormulaIndex: integer;
      const Value: string); override;
    function GetPestBoundaryMethod(FormulaIndex: integer): TPestParamMethod; override;
    procedure SetPestBoundaryMethod(FormulaIndex: integer;
      const Value: TPestParamMethod); override;
    function PestObsObserverPrefix: string; virtual;
    function UserObserverPrefix: string; virtual;
    property PestMultiplierObserver: TObserver
      read GetPestMultiplierObserver;
  public
    Constructor Create(Model: TBaseModel; ScreenObject: TObject);
    destructor Destroy; override;
    procedure Assign(Source: TPersistent);override;
    // @name fills ValueTimeList via a call to AssignCells for each
    // link  @link(TCncStorage) in
    // @link(TCustomMF_BoundColl.Boundaries Values.Boundaries);
    // Those represent non-parameter boundary conditions.
    procedure GetCellValues(ValueTimeList: TList; ParamList: TStringList;
      AModel: TBaseModel; Writer: TObject); override;
    procedure InvalidateDisplay; override;
    class function DefaultBoundaryMethod(
      FormulaIndex: integer): TPestParamMethod; override;
    procedure Loaded;
  published
    property PestConcentrationFormula: string read GetPestConcentrationFormula
      write SetPestConcentrationFormula;
    property PestConcentrationMethod: TPestParamMethod read FPestConcentrationMethod
      write SetPestConcentrationMethod;
    property PestMultiplierFormula: string read GetPestMultiplierFormula
      write SetPestMultiplierFormula;
    property PestMultiplierMethod: TPestParamMethod read FPestMultiplierMethod
      write SetPestMultiplierMethod;
    property ChemSpecies: string read GetChemSpecies write SetChemSpecies;
  end;

  TSrcCollection = class(TCncCollection)
  protected
    class function GetTimeListLinkClass: TTimeListsModelLinkClass; override;
  end;

  TSrcTimeListLink = class(TCncTimeListLink)
  public
    function Description: string; override;
    procedure AssignInvalidateEvent; override;
    procedure AssignMultInvalidateEvent; override;
    procedure AssignActiveInvalidateEvent; override;
  end;

  TSrcBoundary = class(TCncBoundary)
  protected
    function BoundaryObserverPrefix: string; override;
    function PestObsObserverPrefix: string; override;
    function UserObserverPrefix: string; override;
    procedure InvalidateConcentrationData(Sender: TObject); override;
    procedure InvalidateMultiplierData(Sender: TObject); override;
    procedure InvalidateActiveData(Sender: TObject); override;
    class function BoundaryCollectionClass: TMF_BoundCollClass; override;
  end;

const
  CncActivePosition = 0;
  CncConcentrationPosition = 1;
  CncMultiplierPosition = 2;

implementation

uses ScreenObjectUnit, ModflowTimeUnit, PhastModelUnit,
  frmGoPhastUnit, GIS_Functions, frmErrorsAndWarningsUnit, CellLocationUnit;

resourcestring
  StrCNCSpecifiedConcen = 'CNC Specified Concentration';
  StrConcentrationSetTo = 'Concentration set to zero because of a math error';
  StrSRCMassSource = 'SRC: Mass Source';
  StrMultiplierSetTo = 'Multiplier set to one because of a math error';
  StrActiveSetTo = 'Active set to False because of a math error';

{ TCncRecord }

procedure TCncRecord.Cache(Comp: TCompressionStream; Strings: TStringList);
begin
  WriteCompCell(Comp, Cell);
  WriteCompBoolean(Comp, Active);
  WriteCompReal(Comp, Concentration);
  WriteCompReal(Comp, StartingTime);
  WriteCompReal(Comp, EndingTime);
  WriteCompInt(Comp, Strings.IndexOf(ActiveAnnotation));
  WriteCompInt(Comp, Strings.IndexOf(ConcentrationAnnotation));
  WriteCompInt(Comp, Strings.IndexOf(ConcentrationPest));
  WriteCompInt(Comp, Strings.IndexOf(ConcentrationPestSeriesName));
  WriteCompInt(Comp, Ord(ConcentrationPestSeriesMethod));
  WriteCompInt(Comp, Strings.IndexOf(ConcentrationTimeSeriesName));

  WriteCompReal(Comp, Multiplier);
  WriteCompInt(Comp, Strings.IndexOf(MultiplierAnnotation));
  WriteCompInt(Comp, Strings.IndexOf(MultiplierPest));
  WriteCompInt(Comp, Strings.IndexOf(MultiplierPestSeriesName));
  WriteCompInt(Comp, Strings.IndexOf(MultiplierTimeSeriesName));
  WriteCompInt(Comp, Ord(MultiplierPestSeriesMethod));
end;

procedure TCncRecord.RecordStrings(Strings: TStringList);
begin
  Strings.Add(ActiveAnnotation);
  Strings.Add(ConcentrationAnnotation);
  Strings.Add(ConcentrationPest);
  Strings.Add(ConcentrationPestSeriesName);
  Strings.Add(ConcentrationTimeSeriesName);

  Strings.Add(MultiplierAnnotation);
  Strings.Add(MultiplierPest);
  Strings.Add(MultiplierPestSeriesName);
  Strings.Add(MultiplierTimeSeriesName);
end;

procedure TCncRecord.Restore(Decomp: TDecompressionStream;
  Annotations: TStringList);
begin
  Cell := ReadCompCell(Decomp);
  Active := ReadCompBoolean(Decomp);
  Concentration := ReadCompReal(Decomp);
  StartingTime := ReadCompReal(Decomp);
  EndingTime := ReadCompReal(Decomp);
  ActiveAnnotation := Annotations[ReadCompInt(Decomp)];
  ConcentrationAnnotation := Annotations[ReadCompInt(Decomp)];
  ConcentrationPest := Annotations[ReadCompInt(Decomp)];
  ConcentrationPestSeriesName := Annotations[ReadCompInt(Decomp)];
  ConcentrationPestSeriesMethod := TPestParamMethod(ReadCompInt(Decomp));
  ConcentrationTimeSeriesName := Annotations[ReadCompInt(Decomp)];

  Multiplier := ReadCompReal(Decomp);
  MultiplierAnnotation := Annotations[ReadCompInt(Decomp)];
  MultiplierPest := Annotations[ReadCompInt(Decomp)];
  MultiplierPestSeriesName := Annotations[ReadCompInt(Decomp)];
  MultiplierTimeSeriesName := Annotations[ReadCompInt(Decomp)];
  MultiplierPestSeriesMethod := TPestParamMethod(ReadCompInt(Decomp));
end;

{ TCncStorage }

procedure TCncStorage.Clear;
begin
  SetLength(FCncArray, 0);
  FCleared := True;
end;

function TCncStorage.GetCncArray: TCncArray;
begin
  if FCached and FCleared then
  begin
    RestoreData;
  end;
  result := FCncArray;
end;

procedure TCncStorage.Restore(DecompressionStream: TDecompressionStream;
  Annotations: TStringList);
var
  Index: Integer;
  Count: Integer;
begin
  DecompressionStream.Read(Count, SizeOf(Count));
  SetLength(FCncArray, Count);
  for Index := 0 to Count - 1 do
  begin
    FCncArray[Index].Restore(DecompressionStream, Annotations);
  end;
end;

procedure TCncStorage.Store(Compressor: TCompressionStream);
var
  Index: Integer;
  Count: Integer;
  Strings: TStringList;
begin
  Strings := TStringList.Create;
  try
    InitializeStrings(Strings);
    Count := Length(FCncArray);
    for Index := 0 to Count - 1 do
    begin
      FCncArray[Index].RecordStrings(Strings);
    end;
    WriteCompInt(Compressor, Strings.Count);

    for Index := 0 to Strings.Count - 1 do
    begin
      WriteCompString(Compressor, Strings[Index]);
    end;

    Compressor.Write(Count, SizeOf(Count));
    for Index := 0 to Count - 1 do
    begin
      FCncArray[Index].Cache(Compressor, Strings);
    end;

  finally
    Strings.Free;
  end;
end;

{ TCncItem }

procedure TCncItem.Assign(Source: TPersistent);
var
  CncSource: TCncItem;
begin
  // if Assign is updated, update IsSame too.
  if Source is TCncItem then
  begin
    CncSource := TCncItem(Source);
    Active := CncSource.Active;
    Concentration := CncSource.Concentration;
    Multiplier := CncSource.Multiplier;
  end;
  inherited;
end;

procedure TCncItem.AssignObserverEvents(Collection: TCollection);
var
  ParentCollection: TCncCollection;
  ConcentrationObserver: TObserver;
  MultiplierObserver: TObserver;
  ActiveObserver: TObserver;
//  ConcIndex: Integer;
begin
  ParentCollection := Collection as TCncCollection;
  ActiveObserver := FObserverList[CncActivePosition];
  ActiveObserver.OnUpToDateSet := ParentCollection.InvalidateGwtConcentrationsActive;
  ConcentrationObserver := FObserverList[CncConcentrationPosition];
  ConcentrationObserver.OnUpToDateSet := ParentCollection.InvalidateGwtConcentrations;
  MultiplierObserver := FObserverList[CncMultiplierPosition];
  MultiplierObserver.OnUpToDateSet := ParentCollection.InvalidateGwtMultipliers;
end;

function TCncItem.BoundaryFormulaCount: integer;
begin
  result := 3;
end;

constructor TCncItem.Create(Collection: TCollection);
begin
  inherited;
  Multiplier := '1';
  Active := 'True';
end;

procedure TCncItem.CreateFormulaObjects;
begin
  FActive := CreateFormulaObject(dso3D);
  FConcentration := CreateFormulaObject(dso3D);
  FMultiplier := CreateFormulaObject(dso3D);
end;

destructor TCncItem.Destroy;
begin
  Concentration := '0';
  Multiplier := '0';
  Active := 'False';
  inherited;
end;

function TCncItem.GetActive: string;
begin
  Result := FActive.Formula;
  ResetItemObserver(CncActivePosition);
end;

function TCncItem.GetBoundaryFormula(Index: integer): string;
begin
  case Index of
    CncActivePosition: result := Active;
    CncConcentrationPosition: result := Concentration;
    CncMultiplierPosition: result := Multiplier;
    else
      Assert(False);
  end;
end;

function TCncItem.GetConcentration: string;
begin
  Result := FConcentration.Formula;
  ResetItemObserver(CncConcentrationPosition);
end;

function TCncItem.GetMultiplier: string;
begin
  Result := FMultiplier.Formula;
  ResetItemObserver(CncMultiplierPosition);
end;

procedure TCncItem.GetPropertyObserver(Sender: TObject; List: TList);
begin
  if Sender = FActive as TObject then
  begin
    List.Add(FObserverList[CncActivePosition]);
  end;
  if Sender = FConcentration as TObject then
  begin
    List.Add(FObserverList[CncConcentrationPosition]);
  end;
  if Sender = FMultiplier as TObject then
  begin
    List.Add(FObserverList[CncMultiplierPosition]);
  end;
end;

procedure TCncItem.InvalidateModel;
var
  PhastModel: TPhastModel;
begin
  inherited;
  (Collection as TCncCollection).InvalidateModel;
  PhastModel := Model as TPhastModel;
  if (PhastModel <> nil)
    and not (csDestroying in PhastModel.ComponentState)
    and not PhastModel.Clearing then
  begin
    if Collection is TSrcCollection then
    begin
      PhastModel.InvalidateMassSrcActive(self);
      PhastModel.InvalidateMassSrc(self);
      PhastModel.InvalidateMassSrcMultiplier(self);
    end
    else
    begin
      PhastModel.InvalidateCncActive(self);
      PhastModel.InvalidateCncConcentration(self);
      PhastModel.InvalidateCncMultiplier(self);
    end;
  end;
end;

function TCncItem.IsSame(AnotherItem: TOrderedItem): boolean;
var
  Item: TCncItem;
begin
  result := (AnotherItem is TCncItem) and inherited IsSame(AnotherItem);
  if result then
  begin
    Item := TCncItem(AnotherItem);
    result := (Item.Concentration = Concentration)
      and (Item.Multiplier = Multiplier)
      and (Item.Active = Active)
  end;
end;

procedure TCncItem.RemoveFormulaObjects;
begin
  frmGoPhast.PhastModel.FormulaManager.Remove(FActive,
    GlobalRemoveModflowBoundaryItemSubscription,
    GlobalRestoreModflowBoundaryItemSubscription, self);
  frmGoPhast.PhastModel.FormulaManager.Remove(FConcentration,
    GlobalRemoveModflowBoundaryItemSubscription,
    GlobalRestoreModflowBoundaryItemSubscription, self);
  frmGoPhast.PhastModel.FormulaManager.Remove(FMultiplier,
    GlobalRemoveModflowBoundaryItemSubscription,
    GlobalRestoreModflowBoundaryItemSubscription, self);
end;

procedure TCncItem.SetActive(const Value: string);
begin
  UpdateFormulaBlocks(Value, CncActivePosition, FActive);
end;

procedure TCncItem.SetBoundaryFormula(Index: integer; const Value: string);
begin
  inherited;
  case Index of
    CncActivePosition: Active := Value;
    CncConcentrationPosition: Concentration := Value;
    CncMultiplierPosition: Multiplier := Value;
    else
      Assert(False)
  end;
end;

procedure TCncItem.SetConcentration(const Value: string);
begin
  UpdateFormulaBlocks(Value, CncConcentrationPosition, FConcentration);
end;

procedure TCncItem.SetMultiplier(const Value: string);
begin
  UpdateFormulaBlocks(Value, CncMultiplierPosition, FMultiplier);
end;

{ TCncTimeListLink }

procedure TCncTimeListLink.AddGwtTimeLists(SpeciesIndex: Integer);
var
  ConcActiveTimeList: TModflowTimeList;
  ConcTimeList: TModflowTimeList;
  MultiplierTimeList: TModflowTimeList;
  LocalModel: TCustomModel;
  PhastModel: TPhastModel;
begin
  PhastModel := frmGoPhast.PhastModel;

  ConcActiveTimeList := TModflowTimeList.Create(Model, Boundary.ScreenObject);
  ConcActiveTimeList.NonParamDescription := PhastModel.MobileComponents[SpeciesIndex].Name + ' Active';
  ConcActiveTimeList.ParamDescription := ConcActiveTimeList.NonParamDescription;
  if Model <> nil then
  begin
    LocalModel := Model as TCustomModel;
    if self is TSrcTimeListLink then
    begin
      ConcActiveTimeList.OnInvalidate := LocalModel.InvalidateMassSrcActive;
    end
    else
    begin
      ConcActiveTimeList.OnInvalidate := LocalModel.InvalidateCncActive;
    end;
  end;
  AddTimeList(ConcActiveTimeList);
  FActiveList.Add(ConcActiveTimeList);


  ConcTimeList := TModflowTimeList.Create(Model, Boundary.ScreenObject);
  ConcTimeList.NonParamDescription := PhastModel.MobileComponents[SpeciesIndex].Name;
  ConcTimeList.ParamDescription := ConcTimeList.NonParamDescription;
  if Model <> nil then
  begin
    LocalModel := Model as TCustomModel;
    if self is TSrcTimeListLink then
    begin
      ConcTimeList.OnInvalidate := LocalModel.InvalidateMassSrc;
    end
    else
    begin
      ConcTimeList.OnInvalidate := LocalModel.InvalidateCncConcentration;
    end;
  end;
  AddTimeList(ConcTimeList);
  FConcList.Add(ConcTimeList);


  MultiplierTimeList := TModflowTimeList.Create(Model, Boundary.ScreenObject);
  MultiplierTimeList.NonParamDescription := PhastModel.MobileComponents[SpeciesIndex].Name + ' Multiplier';
  MultiplierTimeList.ParamDescription := ' ' + MultiplierTimeList.NonParamDescription;
  if Model <> nil then
  begin
    LocalModel := Model as TCustomModel;
    if self is TSrcTimeListLink then
    begin
      MultiplierTimeList.OnInvalidate := LocalModel.InvalidateMassSrcMultiplier;
    end
    else
    begin
      MultiplierTimeList.OnInvalidate := LocalModel.InvalidateCncMultiplier;
    end;
  end;
  AddTimeList(MultiplierTimeList);
  FMultiplierList.Add(MultiplierTimeList);

end;

procedure TCncTimeListLink.AssignActiveInvalidateEvent;
begin
  InvalidateEvent := (Model as TCustomModel).InvalidateCncActive;
end;

procedure TCncTimeListLink.AssignInvalidateEvent;
begin
  InvalidateEvent := (Model as TCustomModel).InvalidateCncConcentration;
end;

procedure TCncTimeListLink.AssignMultInvalidateEvent;
begin
  InvalidateEvent := (Model as TCustomModel).InvalidateCncMultiplier;
end;

constructor TCncTimeListLink.Create(AModel: TBaseModel;
  ABoundary: TCustomMF_BoundColl);
begin
  FActiveList := TModflowTimeLists.Create;
  FConcList := TModflowTimeLists.Create;
  FMultiplierList := TModflowTimeLists.Create;
  AssignInvalidateEvent;
  inherited;
end;

procedure TCncTimeListLink.CreateTimeLists;
var
  PhastModel: TPhastModel;
  SpeciesIndex: Integer;
begin
  inherited;
  FActiveData := TModflowTimeList.Create(Model, Boundary.ScreenObject);
  FActiveData.NonParamDescription := Description + ' Active';
  FActiveData.ParamDescription := ' ' + Description + ' Active';

  FConcentrationData := TModflowTimeList.Create(Model, Boundary.ScreenObject);
  FConcentrationData.NonParamDescription := Description;
  FConcentrationData.ParamDescription := Description;

  FMultiplierData := TModflowTimeList.Create(Model, Boundary.ScreenObject);
  FMultiplierData.NonParamDescription := Description + ' Multiplier';
  FMultiplierData.ParamDescription := ' ' + Description + ' Multiplier';

  if Model <> nil then
  begin
    FActiveData.OnInvalidate := InvalidateEvent;
    FConcentrationData.OnInvalidate := InvalidateEvent;
    FMultiplierData.OnInvalidate := InvalidateEvent;
  end;
  PhastModel := frmGoPhast.PhastModel;
  if PhastModel.GwtUsed then
  begin
    for SpeciesIndex := 0 to PhastModel.MobileComponents.Count - 1 do
    begin
      AddGwtTimeLists(SpeciesIndex);
    end;
  end;
end;

function TCncTimeListLink.Description: string;
begin
  result := StrCNCSpecifiedConcen;
end;

destructor TCncTimeListLink.Destroy;
begin
  FActiveData.Free;
  FConcentrationData.Free;
  FMultiplierData.Free;
  FActiveList.Free;
  FMultiplierList.Free;
  FConcList.Free;
  inherited;
end;

procedure TCncTimeListLink.RemoveGwtTimeLists(SpeciesIndex: Integer);
var
  ActiveTimeList: TModflowTimeList;
  ConcTimeList: TModflowTimeList;
  MultiplierTimeList: TModflowTimeList;
begin
  ActiveTimeList := FActiveList[SpeciesIndex];
  RemoveTimeList(ActiveTimeList);
  FActiveList.Delete(SpeciesIndex);

  ConcTimeList := FConcList[SpeciesIndex];
  RemoveTimeList(ConcTimeList);
  FConcList.Delete(SpeciesIndex);

  MultiplierTimeList := FMultiplierList[SpeciesIndex];
  RemoveTimeList(MultiplierTimeList);
  FMultiplierList.Delete(SpeciesIndex);
end;

procedure TCncTimeListLink.UpdateGwtTimeLists;
var
  LocalModel: TCustomModel;
  SpeciesIndex: Integer;
begin
  LocalModel := Model as TCustomModel;
  if LocalModel.GwtUsed then
  begin
    for SpeciesIndex := FConcList.Count to
      LocalModel.MobileComponents.Count - 1 do
    begin
      AddGwtTimeLists(SpeciesIndex);
    end;
    for SpeciesIndex := LocalModel.MobileComponents.Count to
      FConcList.Count - 1 do
    begin
      RemoveGwtTimeLists(SpeciesIndex);
    end;
  end;
end;

{ TCnCCollection }

procedure TCncCollection.AddSpecificBoundary(AModel: TBaseModel);
begin
  AddBoundary(TCncStorage.Create(AModel));
end;

function TCncCollection.AdjustedFormula(FormulaIndex,
  ItemIndex: integer): string;
var
  Item: TCncItem;
begin
  Item := Items[ItemIndex] as TCncItem;
  result := Item.BoundaryFormula[FormulaIndex];
end;

procedure TCncCollection.AssignCellList(CellAssignmentData: TCellAssignmentData);
var
  CncStorage: TCncStorage;
  CellList: TCellAssignmentList;