unit ModflowHfbUnit;

interface

uses ZLib, Classes, Contnrs, SysUtils, RbwParser, GoPhastTypes,
  ModflowBoundaryUnit, SubscriptionUnit, FormulaManagerUnit,
  OrderedCollectionUnit, ModflowCellUnit, RealListUnit;

type
  TAdjustmentMethod = (amNone, amAllEdges, amNearlyParallel);

  THfbRecord = record
    Cell1: TCellLocation;
    Cell2: TCellLocation;
    HydraulicConductivity: double;
    Thickness: double;
    StartingTime: double;
    EndingTime: double;
    HydraulicConductivityAnnotation: string;
    ThicknessAnnotation: string;
    HydraulicConductivityPest: string;
    ThicknessPest: string;
    HydraulicConductivityPestSeriesName: string;
    ThicknessPestSeriesName: string;
    HydraulicConductivityPestSeriesMethod: TPestParamMethod;
    ThicknessPestSeriesMethod: TPestParamMethod;
    procedure Cache(Comp: TCompressionStream; Strings: TStringList);
    procedure Restore(Decomp: TDecompressionStream; Annotations: TStringList);
    procedure RecordStrings(Strings: TStringList);
  end;

  THfbArray = array of THfbRecord;

  THfbStorage = class(TCustomBoundaryStorage)
  private
    FHfbArray: THfbArray;
    function GetHfbArray: THfbArray;
  protected
    procedure Restore(DecompressionStream: TDecompressionStream; Annotations: TStringList); override;
    procedure Store(Compressor: TCompressionStream); override;
    procedure Clear; override;
  public
    property HfbArray: THfbArray read GetHfbArray;
  end;


  // Transient horizontal flow barrier in MODFLOW 6
  THfbItem = class(TCustomModflowBoundaryItem)
  private
    // See @link(HydraulicConductivityFormula).
    FHydraulicConductivityFormula: TFormulaObject;
    // See @link(ThicknessFormula).
    FThicknessFormula: TFormulaObject;
    function GetHydraulicConductivity: string;
    function GetThickness: string;
    procedure SetHydraulicConductivity(const Value: string);
    procedure SetThickness(const Value: string);
  protected
//    FObserverList: TObserverObjectList;
    procedure AssignObserverEvents(Collection: TCollection); override;
    procedure CreateFormulaObjects; override;
    procedure GetPropertyObserver(Sender: TObject; List: TList); override;
    procedure RemoveFormulaObjects; override;
    // @name returns @true if AnotherItem is a @classname and
    // @link(StartTime) and (EndTime) are the same in the current
    // @classname and in AnotherItem.
    function IsSame(AnotherItem: TOrderedItem): boolean; override;
    function GetBoundaryFormula(Index: integer): string; override;
    procedure SetBoundaryFormula(Index: integer; const Value: string);
      override;
    function BoundaryFormulaCount: integer; override;
  public
    procedure Assign(Source: TPersistent); override;
    constructor Create(Collection: TCollection); override;
    destructor Destroy; override;
    // Descendants of @classname define string properties that are the
    // formulas for the unique features of each boundary condition.
    // @name provides access to those properties without knowing what
    // they are through the virtual abstract methods @link(GetBoundaryFormula)
    // and @link(SetBoundaryFormula).  Descendants must override those
    // methods.  @name is used in
    // @link(TfrmScreenObjectProperties.StoreModflowBoundary
    // TfrmScreenObjectProperties.StoreModflowBoundary) and
    // @link(TfrmScreenObjectProperties.GetModflowBoundary
    // TfrmScreenObjectProperties.GetModflowBoundary).
    // @seealso(TCustomMF_BoundColl)
    property BoundaryFormula[Index: integer]: string read GetBoundaryFormula
      write SetBoundaryFormula;
  published
    property HydraulicConductivity: string read GetHydraulicConductivity
      write SetHydraulicConductivity;
    property Thickness: string read GetThickness write SetThickness;
  end;

  THfbTimeListLink = class(TTimeListsModelLink)
  private
    // @name is used to perform notifications of the Elevations for a series of
    // Drain Boundaries over a series of time intervals.
//    FElevationData: TModflowTimeList;
    // @name is used to perform notifications of the Conductances
    // for a series of
    // Drain Boundaries over a series of time intervals.
//    FConductanceData: TModflowTimeList;
  protected
    procedure CreateTimeLists; override;
  public
    Destructor Destroy; override;
  end;

  // @name represents MODFLOW HFB boundaries
  // for a series of time intervals.
  THfbCollection = class(TCustomMF_ListBoundColl)
  private
    procedure InvalidateHydraulicConductivity(Sender: TObject);
    procedure InvalidateThickness(Sender: TObject);
    function GetItems(Index: Integer): THfbItem;
    procedure SetItems(Index: Integer; const Value: THfbItem);
  protected
    function GetTimeListLinkClass: TTimeListsModelLinkClass; override;
    procedure AssignListCellLocation(BoundaryStorage: TCustomBoundaryStorage;
      ACellList: TObject); override;
    procedure AssignCellList(Expression: TExpression; ACellList: TObject;
      BoundaryStorage: TCustomBoundaryStorage; BoundaryFunctionIndex: integer;
      Variables, DataSets: TList; AModel: TBaseModel; AScreenObject: TObject;
      PestName: string; PestSeriesName: string;
      PestSeriesMethod: TPestParamMethod; TimeSeriesName: string); override;
    procedure AddSpecificBoundary(AModel: TBaseModel); override;

    // See @link(TCustomNonSpatialBoundColl.ItemClass
    // TCustomNonSpatialBoundColl.ItemClass)
    class function ItemClass: TBoundaryItemClass; override;
    // @name calls inherited @name and then sets the length of
    // the @link(THfbStorage.HfbArray) at ItemIndex in
    // @link(TCustomMF_BoundColl.Boundaries) to BoundaryCount.
    // @SeeAlso(TCustomMF_BoundColl.SetBoundaryStartAndEndTime
    // TCustomMF_BoundColl.SetBoundaryStartAndEndTime)
    procedure SetBoundaryStartAndEndTime(BoundaryCount: Integer;
      Item: TCustomModflowBoundaryItem; ItemIndex: Integer;
      AModel: TBaseModel); override;
    procedure AssignArrayCellValues(DataSets: TList; ItemIndex: Integer;
      AModel: TBaseModel; PestSeries: TStringList; PestMethods: TPestMethodList;
      PestItemNames, TimeSeriesNames: TStringListObjectList); override;
    function AdjustedFormula(FormulaIndex, ItemIndex: integer): string;
      override;
  public
    function Add: THfbItem;
    property Items[Index: Integer]: THfbItem read GetItems write SetItems; default;
  end;

  THfbBoundary = class(TModflowSteadyBoundary)
  private
    FAdjustmentMethod: TAdjustmentMethod;
    FThicknessFormula: TFormulaObject;
    FHydraulicConductivityFormula: TFormulaObject;
    FParameterName: string;
    FHydraulicConductivityObserver: TObserver;
    FThicknessObserver: TObserver;
    FParameterNameObserver: TObserver;
    FAdjustmentMethodObserver: TObserver;
    FVerticalBoundary: boolean;
    FLayerOffsetFormula: TFormulaObject;
    FLayerOffsetObserver: TObserver;
    FPestHydraulicConductivityObserver: TObserver;
    FPestThicknessFormula: TFormulaObject;
    FPestHydraulicConductivityFormula: TFormulaObject;
    FPestThicknessObserver: TObserver;
  private

    // See @link(Values).
    FValues: THfbCollection;
    FPestThicknessMethod: TPestParamMethod;
    FPestHydraulicConductivityMethod: TPestParamMethod;

    // See @link(Values).
    procedure SetValues(const Value: THfbCollection);
    procedure SetAdjustmentMethod(const Value: TAdjustmentMethod);
    procedure SetHydraulicConductivity(Value: string);
    procedure SetParameterName(const Value: string);
    procedure SetThickness(const Value: string);
    function GetHydraulicConductivityObserver: TObserver;
    function GetThicknessObserver: TObserver;
    function GetParameterNameObserver: TObserver;
    function GetAdjustmentMethodObserver: TObserver;
    function GetHydraulicConductivity: string;
    function GetThickness: string;
    function GetLayerOffsetFormula: string;
    procedure SetLayerOffsetFormula(const Value: string);
    procedure SetVerticalBoundary(const Value: boolean);
    function GetLayerOffsetObserver: TObserver;
    function GetUsedMf6: Boolean;
    function GetPestHydraulicConductivityFormula: string;
    function GetPestThicknessFormula: string;
    procedure SetPestHydraulicConductivityFormula(const Value: string);
    procedure SetPestHydraulicConductivityMethod(const Value: TPestParamMethod);
    procedure SetPestThicknessFormula(const Value: string);
    procedure SetPestThicknessMethod(const Value: TPestParamMethod);
    function GetPestHydraulicConductivityObserver: TObserver;
    function GetPestThicknessObserver: TObserver;
  protected
    procedure HandleChangedValue(Observer: TObserver); override;
    function GetUsedObserver: TObserver; override;
    procedure GetPropertyObserver(Sender: TObject; List: TList); override;
    procedure CreateFormulaObjects; override;
    property HydraulicConductivityObserver: TObserver
      read GetHydraulicConductivityObserver;
    property ThicknessObserver: TObserver read GetThicknessObserver;
    property ParameterNameObserver: TObserver read GetParameterNameObserver;
    property AdjustmentMethodObserver: TObserver read GetAdjustmentMethodObserver;
    property LayerOffsetObserver: TObserver read GetLayerOffsetObserver;
    function BoundaryObserverPrefix: string; override;
    procedure CreateObservers; override;
    procedure CreateObserver(ObserverNameRoot: string; var Observer: TObserver;
      Displayer: TObserver); override;
    property PestHydraulicConductivityObserver: TObserver
      read GetPestHydraulicConductivityObserver;
    property PestThicknessObserver: TObserver read GetPestThicknessObserver;
  public
    Procedure Assign(Source: TPersistent); override;
    Constructor Create(Model: TBaseModel; ScreenObject: TObject);
    destructor Destroy; override;
    procedure HandleChangedParameterValue;
    procedure InvalidateDisplay;
    property UsedMf6: Boolean read GetUsedMf6;
    procedure UpdateTimes(Times: TRealList; StartTestTime, EndTestTime: double;
      var StartRangeExtended, EndRangeExtended: boolean; AModel: TBaseModel); virtual;
    class function DefaultBoundaryMethod(
      FormulaIndex: integer): TPestParamMethod; override;
  published
    property ParameterName: string read FParameterName write SetParameterName;
    property HydraulicConductivityFormula: string read GetHydraulicConductivity
      write SetHydraulicConductivity;
    property ThicknessFormula: string read GetThickness write SetThickness;
    property AdjustmentMethod: TAdjustmentMethod read FAdjustmentMethod
      write SetAdjustmentMethod;
    property VerticalBoundary: boolean read FVerticalBoundary write SetVerticalBoundary;
    property LayerOffsetFormula: string read GetLayerOffsetFormula
      write SetLayerOffsetFormula;
    property Values: THfbCollection read FValues write SetValues;
    property PestHydraulicConductivityFormula: string read GetPestHydraulicConductivityFormula
      write SetPestHydraulicConductivityFormula
      {$IFNDEF PEST}
      Stored False
      {$ENDIF}
      ;
    property PestHydraulicConductivityMethod: TPestParamMethod read FPestHydraulicConductivityMethod
      write SetPestHydraulicConductivityMethod
      {$IFNDEF PEST}
      Stored False
      {$ENDIF}
      ;
    property PestThicknessFormula: string read GetPestThicknessFormula
      write SetPestThicknessFormula
      {$IFNDEF PEST}
      Stored False
      {$ENDIF}
      ;
    property PestThicknessMethod: TPestParamMethod read FPestThicknessMethod
      write SetPestThicknessMethod
      {$IFNDEF PEST}
      Stored False
      {$ENDIF}
      ;
  end;

const
  HfbThicknessPosition = 0;
  HfbHydraulicConductivityPosition = 1;
  HfbLayerOffsetPosition = 2;
  HfbPestThicknessPosition = 3;
  HfbPestHydraulicConductivityPosition = 4;

implementation

uses PhastModelUnit, ScreenObjectUnit, frmGoPhastUnit, frmErrorsAndWarningsUnit,
  GIS_Functions;

resourcestring
  StrHFBThicknessSetTo = 'HFB Thickness set to 0 because of a math error.';
  StrHFBHydraulicConduc = 'HFB hydraulic conductivity set to 0 because of a ' +
  'math error.';

{ THfbBoundary }

procedure THfbBoundary.Assign(Source: TPersistent);
var
  SourecHFB: THfbBoundary;
begin
  if Source is THfbBoundary then
  begin
    SourecHFB := THfbBoundary(Source);
    ParameterName := SourecHFB.ParameterName;
    HydraulicConductivityFormula := SourecHFB.HydraulicConductivityFormula;
    ThicknessFormula := SourecHFB.ThicknessFormula;
    AdjustmentMethod := SourecHFB.AdjustmentMethod;
    VerticalBoundary := SourecHFB.VerticalBoundary;
    LayerOffsetFormula := SourecHFB.LayerOffsetFormula;
    IsUsed := SourecHFB.IsUsed;
    Values := SourecHFB.Values;

    PestHydraulicConductivityFormula := SourecHFB.PestHydraulicConductivityFormula;
    PestHydraulicConductivityMethod := SourecHFB.PestHydraulicConductivityMethod;
    PestThicknessFormula := SourecHFB.PestThicknessFormula;
    PestThicknessMethod := SourecHFB.PestThicknessMethod;
  end
  else
  begin
    inherited;
  end;
end;

function THfbBoundary.BoundaryObserverPrefix: string;
begin
  result := 'HfbBoundary_';
end;

constructor THfbBoundary.Create(Model: TBaseModel; ScreenObject: TObject);
begin
  inherited;

  ThicknessFormula := '1';
  HydraulicConductivityFormula := '1e-8';
  LayerOffsetFormula := '0';

  PestHydraulicConductivityFormula := '';
  PestThicknessFormula := '';

  PestHydraulicConductivityMethod :=
    DefaultBoundaryMethod(HfbPestHydraulicConductivityPosition);
  PestThicknessMethod :=
    DefaultBoundaryMethod(HfbPestThicknessPosition);

  FValues := THfbCollection.Create(self, Model, ScreenObject);
end;

procedure THfbBoundary.CreateFormulaObjects;
begin
  FThicknessFormula := CreateFormulaObjectBlocks(dso3D);
  FHydraulicConductivityFormula := CreateFormulaObjectBlocks(dso3D);
  FLayerOffsetFormula := CreateFormulaObjectBlocks(dso3D);

  FPestThicknessFormula := CreateFormulaObjectBlocks(dso3D);
  FPestHydraulicConductivityFormula := CreateFormulaObjectBlocks(dso3D);

end;

class function THfbBoundary.DefaultBoundaryMethod(
  FormulaIndex: integer): TPestParamMethod;
begin
  case FormulaIndex of
    HfbPestThicknessPosition:
      begin
        result := ppmMultiply;
      end;
    HfbPestHydraulicConductivityPosition:
      begin
        result := ppmMultiply;
      end;
    else
      begin
        result := inherited;
        Assert(False);
      end;
  end;
end;

destructor THfbBoundary.Destroy;
begin
  FValues.Free;
  HydraulicConductivityFormula := '0';
  ThicknessFormula := '0';
  LayerOffsetFormula := '0';
  PestHydraulicConductivityFormula := '';
  PestThicknessFormula := '';

  FParameterNameObserver.Free;
  FAdjustmentMethodObserver.Free;
  inherited;
end;

function THfbBoundary.GetAdjustmentMethodObserver: TObserver;
var
  Model: TPhastModel;
  Observer: TObserver;
begin
  if FAdjustmentMethodObserver = nil then
  begin
    if ParentModel <> nil then
    begin
      Model := ParentModel as TPhastModel;
      Observer := Model.HfbDisplayer;
    end
    else
    begin
      Observer := nil;
    end;
    CreateObserver('HFB_AdjustmentMethod_', FAdjustmentMethodObserver,
      Observer);
//    FObserverList.Add(FAdjustmentMethodObserver);
  end;
  result := FAdjustmentMethodObserver;
end;

function THfbBoundary.GetHydraulicConductivity: string;
begin
  Result := FHydraulicConductivityFormula.Formula;
  if ScreenObject <> nil then
  begin
    ResetBoundaryObserver(HfbHydraulicConductivityPosition);
  end;
end;

function THfbBoundary.GetHydraulicConductivityObserver: TObserver;
var
  Model: TPhastModel;
  Observer: TObserver;
begin
  if FHydraulicConductivityObserver = nil then
  begin
    if ParentModel <> nil then
    begin
      Model := ParentModel as TPhastModel;
      Observer := Model.HfbDisplayer;
    end
    else
    begin
      Observer := nil;
    end;
    CreateObserver('HFB_HydraulicConductivity_',
      FHydraulicConductivityObserver, Observer);
//    FObserverList.Add(FHydraulicConductivityObserver);
  end;
  result := FHydraulicConductivityObserver;
end;

function THfbBoundary.GetLayerOffsetFormula: string;
begin
  Result := FLayerOffsetFormula.Formula;
  if ScreenObject <> nil then
  begin
    ResetBoundaryObserver(HfbLayerOffsetPosition);
  end;
end;

function THfbBoundary.GetLayerOffsetObserver: TObserver;
var
  Model: TPhastModel;
  Observer: TObserver;
begin
  if FLayerOffsetObserver = nil then
  begin
    if ParentModel <> nil then
    begin
      Model := ParentModel as TPhastModel;
      Observer := Model.HfbDisplayer;
    end
    else
    begin
      Observer := nil;
    end;
    CreateObserver('HFB_Layer_Offset_', FLayerOffsetObserver, Observer);
//    FObserverList.Add(FLayerOffsetObserver);
  end;
  result := FLayerOffsetObserver;
end;

function THfbBoundary.GetParameterNameObserver: TObserver;
var
  Model: TPhastModel;
  Observer: TObserver;
begin
  if FParameterNameObserver = nil then
  begin
    if ParentModel <> nil then
    begin
      Model := ParentModel as TPhastModel;
      Observer := Model.HfbDisplayer;
    end
    else
    begin
      Observer := nil;
    end;
    CreateObserver('HFB_ParameterName_', FParameterNameObserver, Observer);
//    FObserverList.Add(FParameterNameObserver);
  end;
  result := FParameterNameObserver;
end;

function THfbBoundary.GetPestHydraulicConductivityFormula: string;
begin
  Result := FPestHydraulicConductivityFormula.Formula;
  if ScreenObject <> nil then
  begin
    ResetBoundaryObserver(HfbPestHydraulicConductivityPosition);
  end;
end;

function THfbBoundary.GetPestHydraulicConductivityObserver: TObserver;
var
  Model: TPhastModel;
  Observer: TObserver;
begin
  if FPestHydraulicConductivityObserver = nil then
  begin
    if ParentModel <> nil then
    begin
      Model := ParentModel as TPhastModel;
      Observer := Model.HfbDisplayer;
    end
    else
    begin
      Observer := nil;
    end;
    CreateObserver('HFB_Thickness_', FPestHydraulicConductivityObserver, Observer);
//    FObserverList.Add(FPestHydraulicConductivityObserver);
  end;
  result := FPestHydraulicConductivityObserver;
end;

function THfbBoundary.GetPestThicknessFormula: string;
begin
  Result := FPestThicknessFormula.Formula;
  if ScreenObject <> nil then
  begin
    ResetBoundaryObserver(HfbPestThicknessPosition);
  end;
end;

function THfbBoundary.GetPestThicknessObserver: TObserver;
var
  Model: TPhastModel;
  Observer: TObserver;
begin
  if FPestThicknessObserver = nil then
  begin
    if ParentModel <> nil then
    begin
      Model := ParentModel as TPhastModel;
      Observer := Model.HfbDisplayer;
    end
    else
    begin
      Observer := nil;
    end;
    CreateObserver('HFB_Thickness_', FPestThicknessObserver, Observer);
//    FObserverList.Add(FPestThicknessObserver);
  end;
  result := FPestThicknessObserver;
end;

procedure THfbBoundary.GetPropertyObserver(Sender: TObject; List: TList);
begin
  if (Sender = FThicknessFormula)
    and (HfbThicknessPosition < List.Count) then
  begin
    List.Add(FObserverList[HfbThicknessPosition]);
  end;
  if (Sender = FHydraulicConductivityFormula)
    and (HfbHydraulicConductivityPosition < List.Count) then
  begin
    List.Add(FObserverList[HfbHydraulicConductivityPosition]);
  end;
  if (Sender = FLayerOffsetFormula)
    and (HfbLayerOffsetPosition < List.Count) then
  begin
    List.Add(FObserverList[HfbLayerOffsetPosition]);
  end;
  if (Sender = FPestThicknessFormula)
    and (HfbPestThicknessPosition < List.Count) then
  begin
    List.Add(FObserverList[HfbPestThicknessPosition]);
  end;
  if (Sender = FPestHydraulicConductivityFormula)
    and (HfbPestHydraulicConductivityPosition < List.Count) then
  begin
    List.Add(FObserverList[HfbPestHydraulicConductivityPosition]);
  end;
end;

function THfbBoundary.GetThickness: string;
begin
  Result := FThicknessFormula.Formula;
  if ScreenObject <> nil then
  begin
    ResetBoundaryObserver(HfbThicknessPosition);
  end;
end;

function THfbBoundary.GetThicknessObserver: TObserver;
var
  Model: TPhastModel;
  Observer: TObserver;
begin
  if FThicknessObserver = nil then
  begin
    if ParentModel <> nil then
    begin
      Model := ParentModel as TPhastModel;
      Observer := Model.HfbDisplayer;
    end
    else
    begin
      Observer := nil;
    end;
    CreateObserver('HFB_Thickness_', FThicknessObserver, Observer);
//    FObserverList.Add(FThicknessObserver);
  end;
  result := FThicknessObserver;
end;

function THfbBoundary.GetUsedMf6: Boolean;
begin
  result := Values.Count > 0;
end;

function THfbBoundary.GetUsedObserver: TObserver;
var
  Model: TPhastModel;
  Observer: TObserver;
begin
  if FUsedObserver = nil then
  begin
    if ParentModel <> nil then
    begin
      Model := ParentModel as TPhastModel;
      Observer := Model.HfbDisplayer;
    end
    else
    begin
      Observer := nil;
    end;
    CreateObserver('HFB_Used_', FUsedObserver, Observer);
//    FObserverList.Add(FUsedObserver);
  end;
  result := FUsedObserver;
end;

procedure THfbBoundary.SetAdjustmentMethod(const Value: TAdjustmentMethod);
var
  LocalScreenObject: TScreenObject;
begin
  if FAdjustmentMethod <> Value then
  begin
    if ScreenObject <> nil then
    begin
      LocalScreenObject := ScreenObject as TScreenObject;
      if LocalScreenObject.CanInvalidateModel then
      begin
        HandleChangedValue(AdjustmentMethodObserver);
      end;
    end;
    FAdjustmentMethod := Value;
    InvalidateModel;
  end;
end;

procedure THfbBoundary.SetHydraulicConductivity(Value: string);
begin
  UpdateFormulaBlocks(Value, HfbHydraulicConductivityPosition, FHydraulicConductivityFormula);
end;

procedure THfbBoundary.SetLayerOffsetFormula(const Value: string);
begin
  UpdateFormulaBlocks(Value, HfbLayerOffsetPosition, FLayerOffsetFormula);
end;

procedure THfbBoundary.SetParameterName(const Value: string);
var
  LocalScreenObject: TScreenObject;
begin
  if FParameterName <> Value then
  begin
    LocalScreenObject := ScreenObject as TScreenObject;
    if ScreenObject <> nil then
    begin
      if LocalScreenObject.CanInvalidateModel then
      begin
        HandleChangedValue(ParameterNameObserver);
      end;
    end;

    FParameterName := Value;
    InvalidateModel;
  end;
end;

procedure THfbBoundary.SetPestHydraulicConductivityFormula(const Value: string);
begin
  UpdateFormulaBlocks(Value, HfbPestHydraulicConductivityPosition, FPestHydraulicConductivityFormula);
end;

procedure THfbBoundary.SetPestHydraulicConductivityMethod(
  const Value: TPestParamMethod);
begin
  SetPestParamMethod(FPestHydraulicConductivityMethod, Value);
end;

procedure THfbBoundary.SetPestThicknessFormula(const Value: string);
begin
  UpdateFormulaBlocks(Value, HfbPestThicknessPosition, FPestThicknessFormula);
end;

procedure THfbBoundary.SetPestThicknessMethod(const Value: TPestParamMethod);
begin
  SetPestParamMethod(FPestThicknessMethod, Value);
end;

procedure THfbBoundary.SetThickness(const Value: string);
begin
  UpdateFormulaBlocks(Value, HfbThicknessPosition, FThicknessFormula);
end;

procedure THfbBoundary.SetValues(const Value: THfbCollection);
begin
  FValues.Assign(Value);
end;

procedure THfbBoundary.SetVerticalBoundary(const Value: boolean);
begin
  if FVerticalBoundary <> Value then
  begin
    FVerticalBoundary := Value;
    InvalidateModel;
  end;
end;

procedure THfbBoundary.UpdateTimes(Times: TRealList; StartTestTime,
  EndTestTime: double; var StartRangeExtended, EndRangeExtended: boolean;
  AModel: TBaseModel);
begin
  AddBoundaryTimes(Values, Times, StartTestTime, EndTestTime,
    StartRangeExtended, EndRangeExtended);
end;

procedure THfbBoundary.HandleChangedValue(Observer: TObserver);
var
  Model: TPhastModel;
  ChildIndex: Integer;
begin
  Model := ParentModel as TPhastModel;
  if not (csDestroying in Model.ComponentState)
    and not Model.Clearing then
  begin
    Observer.UpToDate := True;
    Observer.UpToDate := False;
    Model.HfbDisplayer.Invalidate;
    for ChildIndex := 0 to Model.ChildModels.Count - 1 do
    begin
      Model.ChildModels[ChildIndex].ChildModel.HfbDisplayer.Invalidate;
    end;
    Observer.UpToDate := True;
  end;
end;

procedure THfbBoundary.InvalidateDisplay;
begin
  if Used and (ParentModel <> nil) then
  begin
    HandleChangedValue(HydraulicConductivityObserver);
    HandleChangedValue(ThicknessObserver);
    HandleChangedValue(LayerOffsetObserver);
  end;
end;

procedure THfbBoundary.CreateObserver(ObserverNameRoot: string;
  var Observer: TObserver; Displayer: TObserver);
var
  LocalScreenObject: TScreenObject;
  Model: TPhastModel;
begin
  inherited;
  LocalScreenObject := ScreenObject as TScreenObject;
  if LocalScreenObject.CanInvalidateModel then
  begin
    Model := ParentModel as TPhastModel;
    Assert(Model <> nil);
    Model.HfbDisplayer.Invalidate;
  end;
end;

procedure THfbBoundary.CreateObservers;
begin
  if (ScreenObject <> nil) and (ParentModel <> nil) then
  begin
    FObserverList.Add(ThicknessObserver);
    FObserverList.Add(HydraulicConductivityObserver);
    FObserverList.Add(LayerOffsetObserver);

    FObserverList.Add(PestThicknessObserver);
    FObserverList.Add(PestHydraulicConductivityObserver);
  end;
end;


procedure THfbBoundary.HandleChangedParameterValue;
var
  LocalScreenObject: TScreenObject;
begin
  LocalScreenObject := ScreenObject as TScreenObject;
  if LocalScreenObject.CanInvalidateModel then
  begin
    HandleChangedValue(ParameterNameObserver);
  end;
end;

{ THfbItem }

procedure THfbItem.Assign(Source: TPersistent);
var
  HfbItem: THfbItem;
begin
  // if Assign is updated, update IsSame too.
  if Source is THfbItem then
  begin
    HfbItem := THfbItem(Source);
    HydraulicConductivity := HfbItem.HydraulicConductivity;
    Thickness := HfbItem.Thickness;
  end;
  inherited;
end;

procedure THfbItem.AssignObserverEvents(Collection: TCollection);
begin
  inherited;

end;

function THfbItem.BoundaryFormulaCount: integer;
begin
  result := 2;
end;

constructor THfbItem.Create(Collection: TCollection);
var
  Index: integer;
  Observer: TObserver;
  LocalScreenObject: TScreenObject;
begin
  inherited;
  OnRemoveSubscription := GlobalRemoveModflowBoundaryItemSubscription;
  OnRestoreSubscription := GlobalRestoreModflowBoundaryItemSubscription;

  CreateFormulaObjects;
//  FObserverList := TObserverObjectList.Create;
  for Index := 0 to BoundaryFormulaCount - 1 do
  begin
    Observer := TObserver.Create(nil);
    FObserverList.Add(Observer);
    LocalScreenObject := ScreenObject as TScreenObject;
    if (LocalScreenObject <> nil) and LocalScreenObject.CanInvalidateModel then
    begin
      LocalScreenObject.TalksTo(Observer);
    end;
    BoundaryFormula[Index] := '0';
  end;
  AssignObserverEvents(Collection);
end;

procedure THfbItem.CreateFormulaObjects;
begin
  FThicknessFormula := CreateFormulaObject(dso3D);
  FHydraulicConductivityFormula := CreateFormulaObject(dso3D);
end;

destructor THfbItem.Destroy;
//var
//  LocalScreenObject: TScreenObject;
//  Observer: TObserver;
//  Index: integer;
//  PhastModel: TPhastModel;
begin
  HydraulicConductivity := '0';
  Thickness := '0';
//  FObserverList.Free;
  inherited;
end;

function THfbItem.GetBoundaryFormula(Index: integer): string;
begin
  case Index of
    HfbThicknessPosition: result := Thickness;
    HfbHydraulicConductivityPosition: result := HydraulicConductivity;
    else Assert(False);
  end;
end;

function THfbItem.GetHydraulicConductivity: string;
begin
  Result := FHydraulicConductivityFormula.Formula;
  ResetItemObserver(HfbHydraulicConductivityPosition);
end;

procedure THfbItem.GetPropertyObserver(Sender: TObject; List: TList);
begin
  if Sender = FThicknessFormula then
  begin
    List.Add(FObserverList[HfbThicknessPosition]);
  end;
  if Sender = FHydraulicConductivityFormula then
  begin
    List.Add(FObserverList[HfbHydraulicConductivityPosition]);
  end;
end;

function THfbItem.GetThickness: string;
begin
  Result := FThicknessFormula.Formula;
  ResetItemObserver(HfbThicknessPosition);
end;

function THfbItem.IsSame(AnotherItem: TOrderedItem): boolean;
var
  OtherHfb: THfbItem;
begin
  result := (AnotherItem is THfbItem) and inherited;
  if result then
  begin
    OtherHfb := THfbItem(AnotherItem);
    result := (HydraulicConductivity = OtherHfb.HydraulicConductivity)
      and (Thickness = OtherHfb.Thickness);
  end;
end;

procedure THfbItem.RemoveFormulaObjects;
begin
  frmGoPhast.PhastModel.FormulaManager.Remove(FThicknessFormula,
    GlobalRemoveModflowBoundaryItemSubscription,
    GlobalRestoreModflowBoundaryItemSubscription, self);
  frmGoPhast.PhastModel.FormulaManager.Remove(FHydraulicConductivityFormula,
    GlobalRemoveModflowBoundaryItemSubscription,
    GlobalRestoreModflowBoundaryItemSubscription, self);
end;

procedure THfbItem.SetBoundaryFormula(Index: integer; const Value: string);
begin
  case Index of
    HfbThicknessPosition:
      Thickness := Value;
    HfbHydraulicConductivityPosition:
      HydraulicConductivity := Value;
    else Assert(False);
  end;
end;

procedure THfbItem.SetHydraulicConductivity(const Value: string);
begin
  UpdateFormulaBlocks(Value, HfbHydraulicConductivityPosition, FHydraulicConductivityFormula);
end;

procedure THfbItem.SetThickness(const Value: string);
begin
  UpdateFormulaBlocks(Value, HfbThicknessPosition, FThicknessFormula);
end;

{ THfbRecord }

procedure THfbRecord.Cache(Comp: TCompressionStream; Strings: TStringList);
begin
  WriteCompCell(Comp, Cell1);
  WriteCompCell(Comp, Cell2);
  WriteCompReal(Comp, Thickness);
  WriteCompReal(Comp, HydraulicConductivity);
  WriteCompReal(Comp, StartingTime);
  WriteCompReal(Comp, EndingTime);
  WriteCompInt(Comp, Strings.IndexOf(ThicknessAnnotation));
  WriteCompInt(Comp, Strings.IndexOf(HydraulicConductivityAnnotation));
  WriteCompInt(Comp, Strings.IndexOf(ThicknessPest));
  WriteCompInt(Comp, Strings.IndexOf(HydraulicConductivityPest));
  WriteCompInt(Comp, Strings.IndexOf(ThicknessPestSeriesName));
  WriteCompInt(Comp, Strings.IndexOf(HydraulicConductivityPestSeriesName));
  WriteCompInt(Comp, Ord(ThicknessPestSeriesMethod));