unit ModflowRchUnit;

interface

uses Windows, ZLib, SysUtils, Classes, Contnrs, OrderedCollectionUnit,
  ModflowBoundaryUnit, DataSetUnit, ModflowCellUnit, FormulaManagerUnit,
  SubscriptionUnit, SparseDataSets, GoPhastTypes,
  ModflowTransientListParameterUnit;

type
  {
    @name stores the location, time and recharge rate for a cell.
  }
  TRchRecord = record
    Cell: TCellLocation;
    RechargeRate: double;
    StartingTime: double;
    EndingTime: double;
    RechargeRateAnnotation: string;
//    TimeSeriesName: string;
    RechargeParameterName: string;
    RechargeParameterValue: double;
    RechargePest: string;
    RechargePestSeries: string;
    RechargePestMethod: TPestParamMethod;
    RechargeTimeSeriesName: string;
    procedure Cache(Comp: TCompressionStream; Strings: TStringList);
    procedure Restore(Decomp: TDecompressionStream; Annotations: TStringList);
    procedure RecordStrings(Strings: TStringList);
  end;

  TRchLayerRecord = record
    Cell: TCellLocation;
    RechargeLayer: integer;
    StartingTime: double;
    EndingTime: double;
    RechargeLayerAnnotation: string;
    procedure Cache(Comp: TCompressionStream; Strings: TStringList);
    procedure Restore(Decomp: TDecompressionStream; Annotations: TStringList);
    procedure RecordStrings(Strings: TStringList);
  end;

  // @name is an array of @link(TRchRecord)s.
  TRchArray = array of TRchRecord;
  TRchLayerArray = array of TRchLayerRecord;

  // @name extends @link(TCustomBoundaryStorage) by adding the locations
  // and values of series of recharge cells.
  TRchStorage = class(TCustomBoundaryStorage)
  private
    FRchArray: TRchArray;
    function GetRchArray: TRchArray;
  protected
    procedure Restore(DecompressionStream: TDecompressionStream;
      Annotations: TStringList); override;
    procedure Store(Compressor: TCompressionStream); override;
    procedure Clear; override;
  public
    property RchArray: TRchArray read GetRchArray;
  end;

  TRchLayerStorage = class(TCustomBoundaryStorage)
  private
    FRchLayerArray: TRchLayerArray;
    function GetRchLayerArray: TRchLayerArray;
  protected
    procedure Restore(DecompressionStream: TDecompressionStream;
      Annotations: TStringList); override;
    procedure Store(Compressor: TCompressionStream); override;
    procedure Clear; override;
  public
    property RchLayerArray: TRchLayerArray read GetRchLayerArray;
  end;

  // @name represents a MODFLOW recharge for one time interval.
  // @name is stored by @link(TRchCollection).
  TRchItem = class(TCustomModflowBoundaryItem)
  private
    // See @link(RechargeRate).
    FRechargeRate: TFormulaObject;
    // See @link(RechargeRate).
    procedure SetRechargeRate(const Value: string);
    function GetRechargeRate: string;
  protected
    procedure AssignObserverEvents(Collection: TCollection); override;
    procedure CreateFormulaObjects; override;
    procedure GetPropertyObserver(Sender: TObject; List: TList); override;
    procedure RemoveFormulaObjects; override;
    // See @link(BoundaryFormula).
    function GetBoundaryFormula(Index: integer): string; override;
    // See @link(BoundaryFormula).
    procedure SetBoundaryFormula(Index: integer; const Value: string); override;
    // @name checks whether AnotherItem is the same as the current @classname.
    function IsSame(AnotherItem: TOrderedItem): boolean; override;
    function BoundaryFormulaCount: integer; override;
  public
    Destructor Destroy; override;
  published
    // @name copies Source to this @classname.
    procedure Assign(Source: TPersistent);override;
    // @name is the formula used to set the recharge rate
    // or the recharge rate multiplier of this boundary.
    property RechargeRate: string read GetRechargeRate write SetRechargeRate;
  end;

  // @name represents a MODFLOW recharge layer for one time interval.
  // @name is stored by @link(TRchLayerCollection).
  TRchLayerItem = class(TCustomModflowBoundaryItem)
  private
    // See @link(RechargeLayer).
    FRechargeLayer: TFormulaObject;
    // See @link(RechargeLayer).
    procedure SetRechargeLayer(const Value: string);
    function GetRechargeLayer: string;
  protected
    procedure AssignObserverEvents(Collection: TCollection); override;
    procedure CreateFormulaObjects; override;
    procedure GetPropertyObserver(Sender: TObject; List: TList); override;
    procedure RemoveFormulaObjects; override;
    // See @link(BoundaryFormula).
    function GetBoundaryFormula(Index: integer): string; override;
    // See @link(BoundaryFormula).
    procedure SetBoundaryFormula(Index: integer; const Value: string); override;
    // @name checks whether AnotherItem is the same as the current @classname.
    function IsSame(AnotherItem: TOrderedItem): boolean; override;
    function BoundaryFormulaCount: integer; override;
  public
    Destructor Destroy; override;
  published
    // @name copies Source to this @classname.
    procedure Assign(Source: TPersistent);override;
    // @name is the formula used to set the recharge rate
    // or the recharge rate multiplier of this boundary.
    property RechargeLayer: string read GetRechargeLayer write SetRechargeLayer;
  end;

  TRchTimeListLink = class(TTimeListsModelLink)
  private
    // @name is used to compute the recharge rates for a series of
    // cells over a series of time intervals.
    FRechargeRateData: TModflowTimeList;
  protected
    procedure CreateTimeLists; override;
    property RechargeRateData: TModflowTimeList read FRechargeRateData;
  public
    Destructor Destroy; override;
  end;

  // @name represents MODFLOW Recharge boundaries
  // for a series of time intervals.
  TRchCollection = class(TCustomMF_ArrayBoundColl)
  private
    procedure InvalidateRechargeData(Sender: TObject);
  protected
    function PackageAssignmentMethod(AModel: TBaseModel): TUpdateMethod; virtual;
    function GetTimeListLinkClass: TTimeListsModelLinkClass; override;
    procedure AddSpecificBoundary(AModel: TBaseModel); override;
    // See @link(TCustomListArrayBoundColl.AssignArrayCellValues
    // TCustomListArrayBoundColl.AssignArrayCellValues)
    procedure AssignArrayCellValues(DataSets: TList; ItemIndex: Integer;
      AModel: TBaseModel; PestSeries: TStringList; PestMethods: TPestMethodList;
      PestItemNames, TimeSeriesNames: TStringListObjectList); override;
    // See @link(TCustomListArrayBoundColl.InitializeTimeLists
    // TCustomListArrayBoundColl.InitializeTimeLists)
    procedure InitializeTimeLists(ListOfTimeLists: TList; AModel: TBaseModel;
      PestSeries: TStringList; PestMethods: TPestMethodList;
      PestItemNames, TimeSeriesNames: TStringListObjectList; Writer: TObject); override;
    // See @link(TCustomNonSpatialBoundColl.ItemClass
    // TCustomNonSpatialBoundColl.ItemClass)
    class function ItemClass: TBoundaryItemClass; override;
    // @name calls inherited @name and then sets the length of
    // the @link(TRchStorage.RchArray) at ItemIndex in
    // @link(TCustomMF_BoundColl.Boundaries) to BoundaryCount.
    // @SeeAlso(TCustomMF_BoundColl.SetBoundaryStartAndEndTime
    // TCustomMF_BoundColl.SetBoundaryStartAndEndTime)
    procedure SetBoundaryStartAndEndTime(BoundaryCount: Integer;
      Item: TCustomModflowBoundaryItem; ItemIndex: Integer; AModel: TBaseModel); override;
  end;

  TRchLayerTimeListLink = class(TTimeListsModelLink)
    // @name is used to compute the recharge layers for a series of
    // cells over a series of time intervals.
    FRechargeLayerData: TModflowTimeList;
  protected
    procedure CreateTimeLists; override;
  public
    Destructor Destroy; override;
  end;

  TRchLayerCollection = class(TCustomMF_ArrayBoundColl)
  private
    procedure InvalidateRechLayerData(Sender: TObject);
  protected
    function GetTimeListLinkClass: TTimeListsModelLinkClass; override;
    procedure AddSpecificBoundary(AModel: TBaseModel); override;
    // See @link(TCustomListArrayBoundColl.AssignArrayCellValues
    // TCustomListArrayBoundColl.AssignArrayCellValues)
    procedure AssignArrayCellValues(DataSets: TList; ItemIndex: Integer;
      AModel: TBaseModel; PestSeries: TStringList; PestMethods: TPestMethodList;
      PestItemNames, TimeSeriesNames: TStringListObjectList); override;
    // See @link(TCustomListArrayBoundColl.InitializeTimeLists
    // TCustomListArrayBoundColl.InitializeTimeLists)
    procedure InitializeTimeLists(ListOfTimeLists: TList; AModel: TBaseModel;
      PestSeries: TStringList; PestMethods: TPestMethodList;
      PestItemNames, TimeSeriesNames: TStringListObjectList; Writer: TObject); override;
    // See @link(TCustomNonSpatialBoundColl.ItemClass
    // TCustomNonSpatialBoundColl.ItemClass)
    class function ItemClass: TBoundaryItemClass; override;
    // @name calls inherited @name and then sets the length of
    // the @link(TRchStorage.RchArray) at ItemIndex in
    // @link(TCustomMF_BoundColl.Boundaries) to BoundaryCount.
    // @SeeAlso(TCustomMF_BoundColl.SetBoundaryStartAndEndTime
    // TCustomMF_BoundColl.SetBoundaryStartAndEndTime)
    procedure SetBoundaryStartAndEndTime(BoundaryCount: Integer;
      Item: TCustomModflowBoundaryItem; ItemIndex: Integer; AModel: TBaseModel); override;
  end;


  // Each @name stores a @link(TRchCollection).
  // @classname is stored by @link(TModflowParameters).
  TRchParamItem = class(TModflowParamItem)
  protected
    class function BoundaryClass: TMF_BoundCollClass; override;
  end;

  TRechargeCell = class(TValueCell);

  TRch_Cell = class(TRechargeCell)
  private
    FValues: TRchRecord;
    FStressPeriod: integer;
    function GetRechargeRate: double;
    function GetRechargeRateAnnotation: string;
//    function GetTimeSeriesName: string;
    function GetRechargeParameterName: string;
    function GetRechargeParameterValue: double;
    function GetRechargePest: string;
    function GetRechargePestMethod: TPestParamMethod;
    function GetRechargePestSeries: string;
    function GetRechargeTimeSeriesName: string;
    procedure SetRechargeTimeSeriesName(const Value: string);
  protected
    function GetColumn: integer; override;
    function GetLayer: integer; override;
    function GetRow: integer; override;
    procedure SetColumn(const Value: integer); override;
    procedure SetLayer(const Value: integer); override;
    procedure SetRow(const Value: integer); override;
    function GetIntegerValue(Index: integer; AModel: TBaseModel): integer; override;
    function GetRealValue(Index: integer; AModel: TBaseModel): double; override;
    function GetRealAnnotation(Index: integer; AModel: TBaseModel): string; override;
    function GetIntegerAnnotation(Index: integer; AModel: TBaseModel): string; override;
    procedure Cache(Comp: TCompressionStream; Strings: TStringList); override;
    procedure Restore(Decomp: TDecompressionStream; Annotations: TStringList); override;
    function GetSection: integer; override;
    procedure RecordStrings(Strings: TStringList); override;
    function GetPestName(Index: Integer): string; override;
    function GetPestSeriesMethod(Index: Integer): TPestParamMethod; override;
    function GetPestSeriesName(Index: Integer): string; override;
    function GetMf6TimeSeriesName(Index: Integer): string; override;
    procedure SetMf6TimeSeriesName(Index: Integer; const Value: string); override;
  public
    property StressPeriod: integer read FStressPeriod write FStressPeriod;
    property Values: TRchRecord read FValues write FValues;
    property RechargeRate: double read GetRechargeRate;
    property RechargeRateAnnotation: string read GetRechargeRateAnnotation;
//    property TimeSeriesName: string read GetTimeSeriesName;
    property RechargeParameterName: string read GetRechargeParameterName;
    property RechargeParameterValue: double read GetRechargeParameterValue;
    function IsIdentical(AnotherCell: TValueCell): boolean; override;

    property RechargePest: string read GetRechargePest;
    property RechargePestSeries: string read GetRechargePestSeries;
    property RechargePestMethod: TPestParamMethod read GetRechargePestMethod;
    property RechargeTimeSeriesName: string read GetRechargeTimeSeriesName
      write SetRechargeTimeSeriesName;
  end;

  TRechargeLayerCell = class(TRechargeCell)
  private
    Values: TRchLayerRecord;
    StressPeriod: integer;
  protected
    function GetColumn: integer; override;
    function GetLayer: integer; override;
    function GetRow: integer; override;
    procedure SetColumn(const Value: integer); override;
    procedure SetLayer(const Value: integer); override;
    procedure SetRow(const Value: integer); override;
    function GetIntegerValue(Index: integer; AModel: TBaseModel): integer; override;
    function GetRealValue(Index: integer; AModel: TBaseModel): double; override;
    function GetRealAnnotation(Index: integer; AModel: TBaseModel): string; override;
    function GetIntegerAnnotation(Index: integer; AModel: TBaseModel): string; override;
    procedure Cache(Comp: TCompressionStream; Strings: TStringList); override;
    procedure Restore(Decomp: TDecompressionStream; Annotations: TStringList); override;
    function GetSection: integer; override;
    procedure RecordStrings(Strings: TStringList); override;
  public
    function IsIdentical(AnotherCell: TValueCell): boolean; override;
  end;


  // @name represents the MODFLOW Recharge boundaries associated with
  // a single @link(TScreenObject).
  //
  // @seealso(TRchCollection)
  TRchBoundary = class(TModflowParamBoundary)
  private
    FRechargeLayers: TRchLayerCollection;
    FCurrentParameter: TModflowTransientListParameter;
    FPestRechargeMethod: TPestParamMethod;
    FPestRechargeFormula: TFormulaObject;
    FPestRechargeObserver: TObserver;
    FUsedObserver: TObserver;
    procedure SetRechargeLayers(const Value: TRchLayerCollection);
    function GetTimeVaryingRechargeLayers: boolean;
    procedure AssignRechargeLayerCells(BoundaryStorage: TRchLayerStorage;
      ValueTimeList: TList);
    function GetPestRechargeFormula: string;
    procedure SetPestRechargeFormula(const Value: string);
    procedure SetPestRechargeMethod(const Value: TPestParamMethod);
    procedure InvalidateRechargeData(Sender: TObject);
    function GetPestRechargeObserver: TObserver;
  protected
    // @name fills ValueTimeList with a series of TObjectLists - one for
    // each stress period.  Each such TObjectList is filled with
    // @link(TRch_Cell)s for that stress period.
    procedure AssignCells(BoundaryStorage: TCustomBoundaryStorage;
      ValueTimeList: TList; AModel: TBaseModel); override;
    // See @link(TModflowBoundary.BoundaryCollectionClass
    // TModflowBoundary.BoundaryCollectionClass).
    class function BoundaryCollectionClass: TMF_BoundCollClass; override;
    // See @link(TModflowParamBoundary.ModflowParamItemClass
    // TModflowParamBoundary.ModflowParamItemClass).
    class function ModflowParamItemClass: TModflowParamItemClass; override;
    function ParameterType: TParameterType; override;

    procedure HandleChangedValue(Observer: TObserver); //override;
    function GetUsedObserver: TObserver; //override;
    procedure GetPropertyObserver(Sender: TObject; List: TList); override;
    procedure CreateFormulaObjects; //override;
    function BoundaryObserverPrefix: string; override;
    procedure CreateObservers; //override;
    property PestRechargeObserver: TObserver read GetPestRechargeObserver;
    function GetPestBoundaryFormula(FormulaIndex: integer): string; override;
    procedure SetPestBoundaryFormula(FormulaIndex: integer;
      const Value: string); override;
    function GetPestBoundaryMethod(FormulaIndex: integer): TPestParamMethod; override;
    procedure SetPestBoundaryMethod(FormulaIndex: integer;
      const Value: TPestParamMethod); override;
  public
    Constructor Create(Model: TBaseModel; ScreenObject: TObject);
    Destructor Destroy; override;
    procedure Assign(Source: TPersistent);override;
    // @name fills ValueTimeList via a call to AssignCells for each
    // @link(TRchStorage) in
    // @link(TCustomMF_BoundColl.Boundaries Values.Boundaries);
    // Those represent non-parameter boundary conditions.
    // @name fills ParamList with the names of the
    // MODFLOW Recharge parameters that are in use.
    // The Objects property of ParamList has TObjectLists
    // Each such TObjectList is filled via a call to AssignCells
    // with each @link(TRchStorage) in @link(TCustomMF_BoundColl.Boundaries
    // Param.Param.Boundaries)
    // Those represent parameter boundary conditions.
    procedure GetCellValues(ValueTimeList: TList; ParamList: TStringList;
      AModel: TBaseModel; Writer: TObject); override;
    function Used: boolean; override;
    procedure EvaluateArrayBoundaries(AModel: TBaseModel; Writer: TObject); override;
    function NonParameterColumns: integer; override;
    property TimeVaryingRechargeLayers: boolean
      read GetTimeVaryingRechargeLayers;
    procedure GetRechargeLayerCells(LayerTimeList: TList; AModel: TBaseModel);
    procedure InvalidateDisplay; override;
    procedure Clear; override;
    class function DefaultBoundaryMethod(
      FormulaIndex: integer): TPestParamMethod; override;
  published
    property RechargeLayers: TRchLayerCollection read FRechargeLayers
      write SetRechargeLayers;
    property Interp;
    property PestRechargeFormula: string read GetPestRechargeFormula
      write SetPestRechargeFormula
      {$IFNDEF PEST}
      Stored False
      {$ENDIF}
      ;
    property PestRechargeMethod: TPestParamMethod read FPestRechargeMethod
      write SetPestRechargeMethod
      {$IFNDEF PEST}
      Stored False
      {$ENDIF}
      ;
  end;

const
  RechPosition = 0;

implementation

uses RbwParser, ScreenObjectUnit, PhastModelUnit, ModflowTimeUnit,
  frmGoPhastUnit, TempFiles,
  AbstractGridUnit, ModflowIrregularMeshUnit, ModflowTimeSeriesUnit,
  ModflowParameterUnit, ModelMuseUtilities, CustomModflowWriterUnit;

resourcestring
  StrRechargeLayer = 'Recharge layer';
  StrRechargeRate = 'Recharge rate';
  StrRechargeRateMulti = ' recharge rate multiplier';

const
  StrAssignedFromTheCe = 'assigned from the cell''s layer';
  LayerPosition = 0;

{ TRchItem }

procedure TRchItem.Assign(Source: TPersistent);
begin
  // if Assign is updated, update IsSame too.
  if Source is TRchItem then
  begin
    RechargeRate := TRchItem(Source).RechargeRate;
  end;
  inherited;
end;

procedure TRchItem.AssignObserverEvents(Collection: TCollection);
var
  ParentCollection: TRchCollection;
  RechObserver: TObserver;
begin
  ParentCollection := Collection as TRchCollection;
  RechObserver := FObserverList[RechPosition];
  RechObserver.OnUpToDateSet := ParentCollection.InvalidateRechargeData;
end;

function TRchItem.BoundaryFormulaCount: integer;
begin
  result := 1;
end;

procedure TRchItem.CreateFormulaObjects;
begin
  inherited;
  FRechargeRate := CreateFormulaObject(dsoTop);
end;

destructor TRchItem.Destroy;
begin
  RechargeRate := '0';
  inherited;
end;

function TRchItem.GetBoundaryFormula(Index: integer): string;
begin
  case Index of
    RechPosition: result := RechargeRate;
    else Assert(False);
  end;
end;

procedure TRchItem.GetPropertyObserver(Sender: TObject; List: TList);
begin
  Assert(Sender = FRechargeRate);
  List.Add(FObserverList[RechPosition]);
end;

function TRchItem.GetRechargeRate: string;
begin
  Result := FRechargeRate.Formula;
  ResetItemObserver(RechPosition);
end;

function TRchItem.IsSame(AnotherItem: TOrderedItem): boolean;
var
  Item: TRchItem;
begin
  result := (AnotherItem is TRchItem) and inherited IsSame(AnotherItem);
  if result then
  begin
    Item := TRchItem(AnotherItem);
    result := (Item.RechargeRate = RechargeRate)
  end;
end;

procedure TRchItem.RemoveFormulaObjects;
begin
  frmGoPhast.PhastModel.FormulaManager.Remove(FRechargeRate,
    GlobalRemoveModflowBoundaryItemSubscription, GlobalRestoreModflowBoundaryItemSubscription, self);
end;

procedure TRchItem.SetBoundaryFormula(Index: integer; const Value: string);
begin
  case Index of
    RechPosition: RechargeRate := Value;
    else Assert(False);
  end;
end;

procedure TRchItem.SetRechargeRate(const Value: string);
begin
  UpdateFormulaBlocks(Value, RechPosition, FRechargeRate);
end;

{ TRchCollection }

procedure TRchCollection.AddSpecificBoundary(AModel: TBaseModel);
begin
  AddBoundary(TRchStorage.Create(AModel));
end;

procedure TRchCollection.AssignArrayCellValues(DataSets: TList; ItemIndex: Integer;
  AModel: TBaseModel; PestSeries: TStringList; PestMethods: TPestMethodList;
  PestItemNames, TimeSeriesNames: TStringListObjectList);
var
  RechargeRateArray: TDataArray;
  Boundary: TRchStorage;
  LayerIndex: Integer;
  RowIndex: Integer;
  ColIndex: Integer;
  BoundaryIndex: Integer;
  LocalModel: TCustomModel;
  LayerMin: Integer;
  RowMin: Integer;
  ColMin: Integer;
  LayerMax: Integer;
  RowMax: Integer;
  ColMax: Integer;
  LocalRechargePestSeries: string;
  LocalRechargePestMethod: TPestParamMethod;
  RechargePestItems: TStringList;
  LocalRechargePest: string;
  RechargeTimeItems: TStringList;
  LocalRechargeTimeSeries: string;
begin
  LocalModel := AModel as TCustomModel;
  BoundaryIndex := 0;
  // Note that TRchCollection is also used in UZF where RechPosition
  // is the same as UzfInfiltrationBoundaryPosition.
  RechargeRateArray := DataSets[RechPosition];
  Boundary := Boundaries[ItemIndex, AModel] as TRchStorage;
  RechargeRateArray.GetMinMaxStoredLimits(LayerMin, RowMin, ColMin,
    LayerMax, RowMax, ColMax);

  LocalRechargePestSeries := PestSeries[RechPosition];
  LocalRechargePestMethod := PestMethods[RechPosition];
  RechargePestItems := PestItemNames[RechPosition];
  LocalRechargePest := RechargePestItems[ItemIndex];
  RechargeTimeItems := TimeSeriesNames[RechPosition];
  LocalRechargeTimeSeries := RechargeTimeItems[ItemIndex];

  if LayerMin >= 0 then
  begin
    for LayerIndex := LayerMin to LayerMax do
    begin
      if LocalModel.IsLayerSimulated(LayerIndex) then
      begin
        for RowIndex := RowMin to RowMax do
        begin
          for ColIndex := ColMin to ColMax do
          begin
            if RechargeRateArray.IsValue[LayerIndex, RowIndex, ColIndex] then
            begin
              with Boundary.RchArray[BoundaryIndex] do
              begin
                Cell.Layer := LayerIndex;
                Cell.Row := RowIndex;
                Cell.Column := ColIndex;
//                Cell.Section := Sections[LayerIndex, RowIndex, ColIndex];
                RechargeRate := RechargeRateArray.
                  RealData[LayerIndex, RowIndex, ColIndex];
                RechargeRateAnnotation := RechargeRateArray.
                  Annotation[LayerIndex, RowIndex, ColIndex];
                RechargePest := LocalRechargePest;
                RechargePestSeries := LocalRechargePestSeries;
                RechargePestMethod := LocalRechargePestMethod;
                RechargeTimeSeriesName := LocalRechargeTimeSeries;
              end;
              Inc(BoundaryIndex);
            end;
          end;
        end;
      end;
    end;
  end;
  RechargeRateArray.CacheData;
  Boundary.CacheData;
end;

function TRchCollection.GetTimeListLinkClass: TTimeListsModelLinkClass;
begin
  result := TRchTimeListLink;
end;

procedure TRchCollection.InitializeTimeLists(ListOfTimeLists: TList;
  AModel: TBaseModel; PestSeries: TStringList; PestMethods: TPestMethodList;
  PestItemNames, TimeSeriesNames: TStringListObjectList; Writer: TObject);
var
  TimeIndex: Integer;
  BoundaryValues: TBoundaryValueArray;
  Index: Integer;
  Item: TRchItem;
  ScreenObject: TScreenObject;
  ALink: TRchTimeListLink;
  RechargeRateData: TModflowTimeList;
  DataArrayIndex: Integer;
  DataArray: TTransientRealSparseDataSet;
  RowIndex: Integer;
  ColIndex: Integer;
  LayerIndex: Integer;
  ShouldRemove: Boolean;
  RowCount: Integer;
  ColumnCount: Integer;
  LayerCount: Integer;
  LocalModel: TCustomModel;
  RechargeMethod: TPestParamMethod;
  PestRechargeSeriesName: string;
  RechargeItems: TStringList;
  ItemFormula: string;
  TimeSeriesItems: TStringList;
begin
  LocalModel := AModel as TCustomModel;
  ScreenObject := BoundaryGroup.ScreenObject as TScreenObject;
  SetLength(BoundaryValues, Count);

  // Note that TRchCollection is also used in UZF where RechPosition
  // is the same as UzfInfiltrationBoundaryPosition.
  PestRechargeSeriesName := BoundaryGroup.PestBoundaryFormula[RechPosition];
  PestSeries.Add(PestRechargeSeriesName);
  RechargeMethod := BoundaryGroup.PestBoundaryMethod[RechPosition];
  PestMethods.Add(RechargeMethod);

  RechargeItems := TStringList.Create;
  PestItemNames.Add(RechargeItems);

  TimeSeriesItems := TStringList.Create;
  TimeSeriesNames.Add(TimeSeriesItems);

  for Index := 0 to Count - 1 do
  begin
    Item := Items[Index] as TRchItem;
    BoundaryValues[Index].Time := Item.StartTime;

    ItemFormula := Item.RechargeRate;
    AssignBoundaryFormula(AModel, PestRechargeSeriesName, RechargeMethod,
      RechargeItems, TimeSeriesItems, ItemFormula, Writer, BoundaryValues[Index]);

  end;
  ALink := TimeListLink.GetLink(AModel) as TRchTimeListLink;
  RechargeRateData := ALink.FRechargeRateData;
  RechargeRateData.Initialize(BoundaryValues, ScreenObject, lctUse);
  Assert(RechargeRateData.Count = Count);

  if PackageAssignmentMethod(AModel) = umAdd then
  begin

    RowCount := LocalModel.RowCount;
    ColumnCount := LocalModel.ColumnCount;
    LayerCount := LocalModel.LayerCount;
    for DataArrayIndex := 0 to RechargeRateData.Count - 1 do
    begin
      DataArray := RechargeRateData[DataArrayIndex] as TTransientRealSparseDataSet;
      for RowIndex := 0 to RowCount - 1 do
      begin
        for ColIndex := 0 to ColumnCount - 1 do
        begin
          ShouldRemove := False;
          for LayerIndex := LayerCount -1 downto 0 do
          begin
            if ShouldRemove then
            begin
              DataArray.RemoveValue(LayerIndex, RowIndex, ColIndex);
            end
            else
            begin
              ShouldRemove := DataArray.IsValue[LayerIndex, RowIndex, ColIndex];
            end;
          end;
        end;
      end;
    end;
  end;

  ClearBoundaries(AModel);
  SetBoundaryCapacity(RechargeRateData.Count, AModel);
  for TimeIndex := 0 to RechargeRateData.Count - 1 do
  begin
    AddBoundary(TRchStorage.Create(AModel));
  end;
  ListOfTimeLists.Add(RechargeRateData);
end;

procedure TRchCollection.InvalidateRechargeData(Sender: TObject);
var
  PhastModel: TPhastModel;
  Link: TRchTimeListLink;
  ChildIndex: Integer;
  ChildModel: TChildModel;
begin
  if not (Sender as TObserver).UpToDate then
  begin
    PhastModel := frmGoPhast.PhastModel;
    if PhastModel.Clearing then
    begin
      Exit;
    end;
    Link := TimeListLink.GetLink(PhastModel) as TRchTimeListLink;
    Link.FRechargeRateData.Invalidate;
    for ChildIndex := 0 to PhastModel.ChildModels.Count - 1 do
    begin
      ChildModel := PhastModel.ChildModels[ChildIndex].ChildModel;
      Link := TimeListLink.GetLink(ChildModel) as TRchTimeListLink;
      Link.FRechargeRateData.Invalidate;
    end;
  end;
end;

class function TRchCollection.ItemClass: TBoundaryItemClass;
begin
  result := TRchItem;
end;

function TRchCollection.PackageAssignmentMethod(AModel: TBaseModel): TUpdateMethod;
var
  LocalModel: TCustomModel;
begin
  LocalModel := AModel as TCustomModel;
  result := LocalModel.ModflowPackages.RchPackage.AssignmentMethod;
end;

procedure TRchCollection.SetBoundaryStartAndEndTime(BoundaryCount: Integer;
  Item: TCustomModflowBoundaryItem; ItemIndex: Integer; AModel: TBaseModel);
begin
  SetLength((Boundaries[ItemIndex, AModel] as TRchStorage).FRchArray, BoundaryCount);
  inherited;
end;

{ TRchParamItem }

class function TRchParamItem.BoundaryClass: TMF_BoundCollClass;
begin
  result := TRchCollection;
end;

{ TRch_Cell }

procedure TRch_Cell.Cache(Comp: TCompressionStream; Strings: TStringList);
begin
  inherited;
  Values.Cache(Comp, Strings);
  WriteCompInt(Comp, StressPeriod);
end;

function TRch_Cell.GetColumn: integer;
begin
  result := Values.Cell.Column;
end;

function TRch_Cell.GetIntegerAnnotation(Index: integer; AModel: TBaseModel): string;
begin
  result := '';
  case Index of
    RechPosition: result := StrAssignedFromTheCe;
    else Assert(False);
  end;
end;

function TRch_Cell.GetIntegerValue(Index: integer; AModel: TBaseModel): integer;
begin
  result := 0;
  case Index of
    RechPosition: result := (AModel as TCustomModel).
      DataSetLayerToModflowLayer(Layer);
    else Assert(False);
  end;
end;

function TRch_Cell.GetLayer: integer;
begin
  result := Values.Cell.Layer;
end;

function TRch_Cell.GetMf6TimeSeriesName(Index: Integer): string;
begin
  case Index of
    RechPosition:
      begin
        result := RechargeTimeSeriesName;
      end;
    else
      begin
        result := inherited;
        Assert(False);
      end;
  end;
end;

function TRch_Cell.GetPestName(Index: Integer): string;
begin
  case Index of
    RechPosition:
      begin
        result := RechargePest;
      end;
    else
      begin
        result := inherited;
        Assert(False);
      end;
  end;
end;

function TRch_Cell.GetPestSeriesMethod(Index: Integer): TPestParamMethod;
begin
  case Index of
    RechPosition:
      begin
        result := RechargePestMethod;
      end;
    else
      begin
        result := inherited;
        Assert(False);
      end;
  end;
end;

function TRch_Cell.GetPestSeriesName(Index: Integer): string;
begin
  case Index of
    RechPosition:
      begin
        result := RechargePestSeries;
      end;
    else
      begin
        result := inherited;
        Assert(False);
      end;
  end;
end;

function TRch_Cell.GetRealAnnotation(Index: integer; AModel: TBaseModel): string;
begin
  result := '';
  case Index of
    RechPosition: result := RechargeRateAnnotation;
    else Assert(False);
  end;
end;
