unit ModflowRivUnit;

interface

uses Windows, ZLib, SysUtils, Classes, Contnrs, ModflowBoundaryUnit,
  OrderedCollectionUnit, DataSetUnit, ModflowCellUnit, FormulaManagerUnit,
  SubscriptionUnit, SparseDataSets, RbwParser, GoPhastTypes,
  ModflowTransientListParameterUnit;

type
  TRivRecord = record
    Cell: TCellLocation;
    // With MODFLOW 6, Conductance includes the effect of the parameter,
    // if any. In a template, the appropriate formula would be
    // the parameter name times the conductance divided by the parameter
    // value.
    // For example,
    //
    // if ConductanceParameterName <> '' then
    // begin
    //   WriteString(ConductanceParameterName);
    //   WriteString('*');
    //   WriteFloat(Conductance/ConductanceParameterValue);
    // end;
    Conductance: double;
    RiverStage: double;
    RiverBottom: double;
    StartingTime: double;
    EndingTime: double;
    ConductanceAnnotation: string;
    RiverStageAnnotation: string;
    RiverBottomAnnotation: string;

    // PEST
    ConductancePest: string;
    RiverStagePest: string;
    RiverBottomPest: string;
    ConductancePestSeriesName: string;
    RiverStagePestSeriesName: string;
    RiverBottomPestSeriesName: string;
    ConductancePestSeriesMethod: TPestParamMethod;
    RiverStagePestSeriesMethod: TPestParamMethod;
    RiverBottomPestSeriesMethod: TPestParamMethod;
    // MVR
    MvrUsed: Boolean;
    MvrIndex: Integer;
    // Parameters
    ConductanceParameterName: string;
    ConductanceParameterValue: double;
    // Time Series
    ConductanceTimeSeriesName: string;
    RiverStageTimeSeriesName: string;
    RiverBottomTimeSeriesName: string;
    // GWT Concentrations
    GwtConcentrations: TGwtCellData;
//    Concentrations: array of double;
//    ConcentrationAnnotations: array of string;
//    ConcentrationPestNames: array of string;
//    ConcentrationPestSeriesNames: array of string;
//    ConcentrationPestSeriesMethods: array of TPestParamMethod;
//    ConcentrationTimeSeriesNames: array of string;
    procedure Assign(const Item: TRivRecord);
    procedure Cache(Comp: TCompressionStream; Strings: TStringList);
    procedure Restore(Decomp: TDecompressionStream; Annotations: TStringList);
    procedure RecordStrings(Strings: TStringList);
  end;

  TRivArray = array of TRivRecord;

  TRivStorage = class(TCustomBoundaryStorage)
  private
    FRivArray: TRivArray;
    function GetRivArray: TRivArray;
  protected
    procedure Restore(DecompressionStream: TDecompressionStream; Annotations: TStringList); override;
    procedure Store(Compressor: TCompressionStream); override;
    procedure Clear; override;
  public
    property RivArray: TRivArray read GetRivArray;
  end;

  TRivCollection = class;

  TRivGwtConcCollection = class(TGwtConcStringCollection)
    constructor Create(Model: TBaseModel; AScreenObject: TObject;
      ParentCollection: TRivCollection);
  end;

  // @name represents a MODFLOW River boundary for one time interval.
  // @name is stored by @link(TRivCollection).
  TRivItem = class(TCustomModflowBoundaryItem)
  private
    // See @link(RiverBottom).
    FRiverBottom: TFormulaObject;
    // See @link(RiverStage).
    FRiverStage: TFormulaObject;
    // See @link(Conductance).
    FConductance: TFormulaObject;
    FGwtConcentrations: TRivGwtConcCollection;
    // See @link(RiverBottom).
    procedure SetRiverBottom(const Value: string);
    // See @link(RiverStage).
    procedure SetRiverStage(const Value: string);
    // See @link(Conductance).
    procedure SetConductance(const Value: string);
    function GetConductance: string;
    function GetRiverBottom: string;
    function GetRiverStage: string;
    procedure SetGwtConcentrations(const Value: TRivGwtConcCollection);
  protected
    procedure AssignObserverEvents(Collection: TCollection); override;
    procedure CreateFormulaObjects; override;
    procedure GetPropertyObserver(Sender: TObject; List: TList); override;
    procedure RemoveFormulaObjects; override;
    // See @link(BoundaryFormula).
    function GetBoundaryFormula(Index: integer): string; override;
    // See @link(BoundaryFormula).
    procedure SetBoundaryFormula(Index: integer; const Value: string); override;
    // @name checks whether AnotherItem is the same as the current @classname.
    function IsSame(AnotherItem: TOrderedItem): boolean; override;
    procedure InvalidateModel; override;
    function BoundaryFormulaCount: integer; override;
    function GetConductanceIndex: Integer; override;
  public
    // @name copies Source to this @classname.
    procedure Assign(Source: TPersistent);override;
    constructor Create(Collection: TCollection); override;
    Destructor Destroy; override;
  published
    // @name is the formula used to set the river stage
    // of this boundary.
    property RiverBottom: string read GetRiverBottom write SetRiverBottom;
    // @name is the formula used to set the river stage
    // of this boundary.
    property RiverStage: string read GetRiverStage write SetRiverStage;
    // @name is the formula used to set the conductance
    // or the conductance multiplier of this boundary.
    property Conductance: string read GetConductance write SetConductance;
    property GwtConcentrations: TRivGwtConcCollection read FGwtConcentrations
      write SetGwtConcentrations
      {$IFNDEF GWT}
      stored False
      {$ENDIF}
      ;
  end;

  TRivTimeListLink = class(TTimeListsModelLink)
  private
    // @name is used to compute the River Bottoms for a series of
    // River Boundaries over a series of time intervals.
    FRiverBottomData: TModflowTimeList;
    // @name is used to compute the River Stages for a series of
    // River Boundaries over a series of time intervals.
    FRiverStageData: TModflowTimeList;
    // @name is used to compute the Conductances for a series of
    // River Boundaries over a series of time intervals.
    FConductanceData: TModflowTimeList;
    FConcList: TModflowTimeLists;
    procedure AddGwtTimeLists(SpeciesIndex: Integer);
  protected
    procedure CreateTimeLists; override;
    procedure UpdateGwtTimeLists; override;
  public
    Destructor Destroy; override;
  end;

  // @name represents MODFLOW River boundaries
  // for a series of time intervals.
  TRivCollection = class(TCustomMF_ListBoundColl)
  private
    procedure InvalidateStageData(Sender: TObject);
    procedure InvalidateConductanceData(Sender: TObject);
    procedure InvalidateRiverBottomData(Sender: TObject);
    procedure InvalidateGwtConcentrations(Sender: TObject);
  protected
    function GetTimeListLinkClass: TTimeListsModelLinkClass; override;
    procedure AssignListCellLocation(BoundaryStorage: TCustomBoundaryStorage;
      ACellList: TObject); override;
    procedure AssignCellList(Expression: TExpression; ACellList: TObject;
      BoundaryStorage: TCustomBoundaryStorage; BoundaryFunctionIndex: integer;
      Variables, DataSets: TList; AModel: TBaseModel; AScreenObject: TObject;
      PestName: string; PestSeriesName: string;
      PestSeriesMethod: TPestParamMethod; TimeSeriesName: string); override;
    function AdjustedFormula(FormulaIndex, ItemIndex: integer): string;
      override;
    procedure AddSpecificBoundary(AModel: TBaseModel); override;
    procedure TestIfObservationsPresent(var EndOfLastStressPeriod: Double;
      var StartOfFirstStressPeriod: Double;
      var ObservationsPresent: Boolean); override;

    // See @link(TCustomNonSpatialBoundColl.ItemClass
    // TCustomNonSpatialBoundColl.ItemClass)
    class function ItemClass: TBoundaryItemClass; override;
    // @name calls inherited @name and then sets the length of
    // the @link(TRivStorage.RivArray) at ItemIndex in
    // @link(TCustomMF_BoundColl.Boundaries) to BoundaryCount.
    // @SeeAlso(TCustomMF_BoundColl.SetBoundaryStartAndEndTime
    // TCustomMF_BoundColl.SetBoundaryStartAndEndTime)
    procedure SetBoundaryStartAndEndTime(BoundaryCount: Integer;
      Item: TCustomModflowBoundaryItem; ItemIndex: Integer; AModel: TBaseModel); override;
    procedure InvalidateModel; override;
  end;

  // Each @name stores a @link(TRivCollection).
  // @classname is stored by @link(TModflowParameters).
  TRivParamItem = class(TModflowParamItem)
  protected
    class function BoundaryClass: TMF_BoundCollClass; override;
  end;

  TRiv_Cell = class(TValueCell)
  private
    FValues: TRivRecord;
    StressPeriod: integer;
    function GetRiverStage: double;
    function GetConductance: double;
    function GetRiverBottom: double;
    function GetConductanceAnnotation: string;
    function GetRiverBottomAnnotation: string;
    function GetRiverStageAnnotation: string;
    function GetMvrUsed: Boolean;
    function GetMvrIndex: Integer;
    function GetConductanceParameterName: string;
    function GetConductanceParameterValue: double;
    function GetConductancePest: string;
    function GetConductancePestSeriesMethod: TPestParamMethod;
    function GetConductancePestSeriesName: string;
    function GetRiverBottomPest: string;
    function GetRiverBottomPestSeriesMethod: TPestParamMethod;
    function GetRiverBottomPestSeriesName: string;
    function GetRiverStagePest: string;
    function GetRiverStagePestSeriesMethod: TPestParamMethod;
    function GetRiverStagePestSeriesName: string;
    function GetConductanceTimeSeriesName: string;
    function GetRiverBottomTimeSeriesName: string;
    function GetRiverStageTimeSeriesName: string;
    procedure SetConductanceTimeSeriesName(const Value: string);
    procedure SetRiverBottomTimeSeriesName(const Value: string);
    procedure SetRiverStageTimeSeriesName(const Value: string);
    function GetConcentration(const Index: Integer): double;
    function GetConcentrationAnnotation(const Index: Integer): string;
    function GetConcentrationPestName(const Index: Integer): string;
    function GetConcentrationPestSeriesMethod(
      const Index: Integer): TPestParamMethod;
    function GetConcentrationPestSeriesName(const Index: Integer): string;
    function GetConcentrationTimeSeriesName(const Index: Integer): string;
  protected
    property Values: TRivRecord read FValues;
    function GetColumn: integer; override;
    function GetLayer: integer; override;
    function GetRow: integer; override;
    procedure SetColumn(const Value: integer); override;
    procedure SetLayer(const Value: integer); override;
    procedure SetRow(const Value: integer); override;
    function GetIntegerValue(Index: integer; AModel: TBaseModel): integer; override;
    function GetRealValue(Index: integer; AModel: TBaseModel): double; override;
    function GetRealAnnotation(Index: integer; AModel: TBaseModel): string; override;
    function GetIntegerAnnotation(Index: integer; AModel: TBaseModel): string; override;
    procedure Cache(Comp: TCompressionStream; Strings: TStringList); override;
    procedure Restore(Decomp: TDecompressionStream; Annotations: TStringList); override;
    function GetSection: integer; override;
    procedure RecordStrings(Strings: TStringList); override;
    function GetPestName(Index: Integer): string; override;
    function GetPestSeriesMethod(Index: Integer): TPestParamMethod; override;
    function GetPestSeriesName(Index: Integer): string; override;
    function GetMf6TimeSeriesName(Index: Integer): string; override;
    procedure SetMf6TimeSeriesName(Index: Integer; const Value: string); override;
  public
    // With MODFLOW 6, Conductance includes the effect of the parameter,
    // if any. In a template, the appropriate formula would be
    // the parameter name times the conductance divided by the parameter
    // value.
    // For example,
    //
    // if ConductanceParameterName <> '' then
    // begin
    //   WriteString(ConductanceParameterName);
    //   WriteString('*');
    //   WriteFloat(Conductance/ConductanceParameterValue);
    // end;
    property Conductance: double read GetConductance;
    property RiverBottom: double read GetRiverBottom;
    property RiverStage: double read GetRiverStage;
    property ConductanceAnnotation: string read GetConductanceAnnotation;
    property RiverBottomAnnotation: string read GetRiverBottomAnnotation;
    property RiverStageAnnotation: string read GetRiverStageAnnotation;
//    property TimeSeriesName: string read GetTimeSeriesName;
    property MvrUsed: Boolean read GetMvrUsed;
    property MvrIndex: Integer read GetMvrIndex;
    function IsIdentical(AnotherCell: TValueCell): boolean; override;
    property ConductanceParameterName: string read GetConductanceParameterName;
    property ConductanceParameterValue: double read GetConductanceParameterValue;
    // PEST properties
    property ConductancePest: string read GetConductancePest;
    property RiverStagePest: string read GetRiverStagePest;
    property RiverBottomPest: string read GetRiverBottomPest;

    property ConductancePestSeries: string read GetConductancePestSeriesName;
    property RiverStagePestSeries: string read GetRiverStagePestSeriesName;
    property RiverBottomPestSeries: string read GetRiverBottomPestSeriesName;

    property ConductancePestSeriesMethod: TPestParamMethod
      read GetConductancePestSeriesMethod;
    property RiverStagePestSeriesMethod: TPestParamMethod
      read GetRiverStagePestSeriesMethod;
    property RiverBottomPestSeriesMethod: TPestParamMethod
      read GetRiverBottomPestSeriesMethod;

    property ConductanceTimeSeriesName: string read GetConductanceTimeSeriesName
      write SetConductanceTimeSeriesName;
    property RiverStageTimeSeriesName: string read GetRiverStageTimeSeriesName
      write SetRiverStageTimeSeriesName;
    property RiverBottomTimeSeriesName: string read GetRiverBottomTimeSeriesName
      write SetRiverBottomTimeSeriesName;
    // GWT
    property Concentrations[const Index: Integer]: double
      read GetConcentration;
    property ConcentrationAnnotations[const Index: Integer]: string
      read GetConcentrationAnnotation;
    property ConcentrationPestNames[const Index: Integer]: string
      read GetConcentrationPestName;
    property ConcentrationPestSeriesNames[const Index: Integer]: string
      read GetConcentrationPestSeriesName;
    property ConcentrationPestSeriesMethods[const Index: Integer]: TPestParamMethod
      read GetConcentrationPestSeriesMethod;
    property ConcentrationTimeSeriesNames[const Index: Integer]: string
      read GetConcentrationTimeSeriesName;
  end;

  // @name represents the MODFLOW River boundaries associated with
  // a single @link(TScreenObject).
  //
  // @link(TSpecificModflowBoundary.FormulaInterpretation) determines whether the @Link(TRivItem.Conductance
  // TRivItem.Conductance) formulas represent
  // @unorderedlist(
  //   @item(fiSpecific - Conductance / the length or area of
  //     intersection between the @link(TScreenObject) and grid cell.)
  //   @item(fiTotal - Conductance.)
  // )
  // @seealso(TRivCollection)
  TRivBoundary = class(TSpecificModflowBoundary)
  private
    FCurrentParameter: TModflowTransientListParameter;
    FPestConductanceMethod: TPestParamMethod;
    FPestRiverBottomMethod: TPestParamMethod;
    FPestRiverStageMethod: TPestParamMethod;

    FPestCondFormula: TFormulaObject;
    FPestRiverStageFormula: TFormulaObject;
    FPestRiverBottomFormula: TFormulaObject;
    FPestConductanceObserver: TObserver;
    FPestRiverBottomObserver: TObserver;
    FUsedObserver: TObserver;
    FPestRiverStageObserver: TObserver;
    FPestConcentrationMethods: TGwtPestMethodCollection;
    FPestConcentrationFormulas: TRivGwtConcCollection;
    FConcentrationObservers: TObserverList;
    procedure TestIfObservationsPresent(var EndOfLastStressPeriod: Double;
      var StartOfFirstStressPeriod: Double;
      var ObservationsPresent: Boolean);
    function GetPestConductanceFormula: string;
    function GetPestRiverBottomFormula: string;
    function GetPestRiverStageFormula: string;
    procedure SetPestConductanceFormula(const Value: string);
    procedure SetPestConductanceMethod(const Value: TPestParamMethod);
    procedure SetPestRiverBottomFormula(const Value: string);
    procedure SetPestRiverBottomMethod(const Value: TPestParamMethod);
    procedure SetPestRiverStageFormula(const Value: string);
    procedure SetPestRiverStageMethod(const Value: TPestParamMethod);
    function GetPestConductanceObserver: TObserver;
    function GetPestRiverBottomObserver: TObserver;
    function GetPestRiverStageObserver: TObserver;
    procedure InvalidateStageData(Sender: TObject);
    procedure InvalidateConductanceData(Sender: TObject);
    procedure InvalidateRiverBottomData(Sender: TObject);
    procedure InvalidateConcData(Sender: TObject);
    procedure SetPestConcentrationFormulas(const Value: TRivGwtConcCollection);
    procedure SetPestConcentrationMethods(const Value: TGwtPestMethodCollection);
    function GetConcentrationObserver(const Index: Integer): TObserver;
  protected
    // @name fills ValueTimeList with a series of TObjectLists - one for
    // each stress period.  Each such TObjectList is filled with
    // @link(TRiv_Cell)s for that stress period.
    procedure AssignCells(BoundaryStorage: TCustomBoundaryStorage;
      ValueTimeList: TList; AModel: TBaseModel); override;
    // See @link(TModflowBoundary.BoundaryCollectionClass
    // TModflowBoundary.BoundaryCollectionClass).
    class function BoundaryCollectionClass: TMF_BoundCollClass; override;
    // See @link(TModflowParamBoundary.ModflowParamItemClass
    // TModflowParamBoundary.ModflowParamItemClass).
    class function ModflowParamItemClass: TModflowParamItemClass; override;
    function ParameterType: TParameterType; override;

    procedure HandleChangedValue(Observer: TObserver); //override;
    function GetUsedObserver: TObserver; //override;
    procedure GetPropertyObserver(Sender: TObject; List: TList); override;
    procedure CreateFormulaObjects; //override;
    function BoundaryObserverPrefix: string; override;
    procedure CreateObservers; //override;
    property PestRiverStageObserver: TObserver read GetPestRiverStageObserver;
    property PestRiverBottomObserver: TObserver read GetPestRiverBottomObserver;
    property PestConductanceObserver: TObserver read GetPestConductanceObserver;
    property ConcentrationObserver[const Index: Integer]: TObserver
      read GetConcentrationObserver;
    function GetPestBoundaryFormula(FormulaIndex: integer): string; override;
    procedure SetPestBoundaryFormula(FormulaIndex: integer;
      const Value: string); override;
    function GetPestBoundaryMethod(FormulaIndex: integer): TPestParamMethod; override;
    procedure SetPestBoundaryMethod(FormulaIndex: integer;
      const Value: TPestParamMethod); override;
  public
    Constructor Create(Model: TBaseModel; ScreenObject: TObject);
    destructor Destroy; override;
    procedure Assign(Source: TPersistent);override;
    // @name fills ValueTimeList via a call to AssignCells for each
    // link  @link(TRivStorage) in
    // @link(TCustomMF_BoundColl.Boundaries Values.Boundaries);
    // Those represent non-parameter boundary conditions.
    // @name fills ParamList with the names of the
    // MODFLOW RIV parameters that are in use.
    // The Objects property of ParamList has TObjectLists
    // Each such TObjectList is filled via a call to AssignCells
    // with each @link(TRivStorage) in @link(TCustomMF_BoundColl.Boundaries
    // Param.Param.Boundaries)
    // Those represent parameter boundary conditions.
    procedure GetCellValues(ValueTimeList: TList; ParamList: TStringList;
      AModel: TBaseModel; Writer: TObject); override;
    procedure InvalidateDisplay; override;
    class function DefaultBoundaryMethod(
      FormulaIndex: integer): TPestParamMethod; override;
  published
    property Interp;
    property PestRiverBottomFormula: string read GetPestRiverBottomFormula
      write SetPestRiverBottomFormula;
    property PestRiverStageFormula: string read GetPestRiverStageFormula
      write SetPestRiverStageFormula;
    property PestConductanceFormula: string read GetPestConductanceFormula
      write SetPestConductanceFormula;
    property PestRiverBottomMethod: TPestParamMethod read FPestRiverBottomMethod
      write SetPestRiverBottomMethod;
    property PestRiverStageMethod: TPestParamMethod read FPestRiverStageMethod
      write SetPestRiverStageMethod;
    property PestConductanceMethod: TPestParamMethod
      read FPestConductanceMethod write SetPestConductanceMethod;
    property PestConcentrationFormulas: TRivGwtConcCollection
      read FPestConcentrationFormulas write SetPestConcentrationFormulas
      {$IFNDEF GWT}
      Stored False
      {$ENDIF}
      ;
    property PestConcentrationMethods: TGwtPestMethodCollection
      read FPestConcentrationMethods write SetPestConcentrationMethods
      {$IFNDEF GWT}
      Stored False
      {$ENDIF}
      ;
  end;

const
  RivStagePosition = 0;
  RivConductancePosition = 1;
  RivBottomPosition = 2;
  RivStartConcentration = 3;

resourcestring
  StrRIVStageSetToZer = 'RIV stage set to zero because of a math error';
  StrRIVConductanceSet = 'RIV conductance set to zero because of a math erro' +
  'r';
  StrRIVBottomSetToZe = 'RIV bottom set to zero because of a math error';
  StrRIVConcentrationSe = 'RIV Concentration set to zero because of a math e' +
  'rror';


implementation

uses PhastModelUnit, ScreenObjectUnit, ModflowTimeUnit, TempFiles,
  frmGoPhastUnit, GIS_Functions, ModflowTimeSeriesUnit, ModflowMvrUnit,
  frmErrorsAndWarningsUnit;

{ TRivItem }

procedure TRivItem.Assign(Source: TPersistent);
var
  Riv: TRivItem;
begin
  // if Assign is updated, update IsSame too.
  if Source is TRivItem then
  begin
    Riv := TRivItem(Source);
    RiverStage := Riv.RiverStage;
    Conductance := Riv.Conductance;
    RiverBottom := Riv.RiverBottom;
    GwtConcentrations := Riv.GwtConcentrations;
  end;
  inherited;
end;

procedure TRivItem.AssignObserverEvents(Collection: TCollection);
var
  ParentCollection: TRivCollection;
  StageObserver: TObserver;
  ConductanceObserver: TObserver;
  BottomObserver: TObserver;
  ConcIndex: Integer;
begin
  ParentCollection := Collection as TRivCollection;
  StageObserver := FObserverList[RivStagePosition];
  StageObserver.OnUpToDateSet := ParentCollection.InvalidateStageData;
  ConductanceObserver := FObserverList[RivConductancePosition];
  ConductanceObserver.OnUpToDateSet := ParentCollection.InvalidateConductanceData;
  BottomObserver := FObserverList[RivBottomPosition];
  BottomObserver.OnUpToDateSet := ParentCollection.InvalidateRiverBottomData;
  for ConcIndex := 0 to GwtConcentrations.Count - 1 do
  begin
    GwtConcentrations[ConcIndex].Observer.OnUpToDateSet
      := ParentCollection.InvalidateGwtConcentrations;
  end;
end;

function TRivItem.BoundaryFormulaCount: integer;
begin
  result := 3;
  if GwtConcentrations <> nil then
  begin
    result := result + GwtConcentrations.Count;
  end;
end;

constructor TRivItem.Create(Collection: TCollection);
var
  RivCol: TRivCollection;
begin
  RivCol := Collection as TRivCollection;
  FGwtConcentrations := TRivGwtConcCollection.Create(Model, ScreenObject,
    RivCol);
  inherited;
end;

procedure TRivItem.CreateFormulaObjects;
begin
  FRiverStage := CreateFormulaObject(dso3D);
  FConductance := CreateFormulaObject(dso3D);
  FRiverBottom := CreateFormulaObject(dso3D);
end;

destructor TRivItem.Destroy;
begin
  FGwtConcentrations.Free;
  RiverBottom := '0';
  RiverStage := '0';
  Conductance := '0';
  inherited;
end;

function TRivItem.GetBoundaryFormula(Index: integer): string;
var
  Item: TGwtConcStringValueItem;
begin
  case Index of
    RivStagePosition: result := RiverStage;
    RivConductancePosition: result := Conductance;
    RivBottomPosition: result := RiverBottom;
    else
      begin
        Dec(Index, 3);
        while GwtConcentrations.Count <= Index do
        begin
          GwtConcentrations.Add;
        end;
        Item := GwtConcentrations[Index];
        result := Item.Value;
      end;
  end;
end;

function TRivItem.GetConductance: string;
begin
  Result := FConductance.Formula;
  ResetItemObserver(RivConductancePosition);
end;

function TRivItem.GetConductanceIndex: Integer;
begin
  result := RivConductancePosition;
end;

procedure TRivItem.GetPropertyObserver(Sender: TObject; List: TList);
var
  ConcIndex: Integer;
  Item: TGwtConcStringValueItem;
begin
  if Sender = FRiverStage then
  begin
    List.Add( FObserverList[RivStagePosition]);
  end;
  if Sender = FConductance then
  begin
    List.Add( FObserverList[RivConductancePosition]);
  end;
  if Sender = FRiverBottom then
  begin
    List.Add( FObserverList[RivBottomPosition]);
  end;
  for ConcIndex := 0 to GwtConcentrations.Count - 1 do
  begin
    Item := GwtConcentrations.Items[ConcIndex];
    if Item.ValueObject = Sender then
    begin
      List.Add(Item.Observer);
    end;
  end;
end;

function TRivItem.GetRiverBottom: string;
begin
  Result := FRiverBottom.Formula;
  ResetItemObserver(RivBottomPosition);
end;

function TRivItem.GetRiverStage: string;
begin
  Result := FRiverStage.Formula;
  ResetItemObserver(RivStagePosition);
end;

procedure TRivItem.InvalidateModel;
var
  PhastModel: TPhastModel;
begin
  inherited;
  PhastModel := Model as TPhastModel;
  if (PhastModel <> nil)
    and not (csDestroying in PhastModel.ComponentState)
    and not PhastModel.Clearing then
  begin
    PhastModel.InvalidateMfRivConductance(self);
    PhastModel.InvalidateMfRivStage(self);
    PhastModel.InvalidateMfRivBottom(self);
    PhastModel.InvalidateMfRivConc(self);
  end;
end;

function TRivItem.IsSame(AnotherItem: TOrderedItem): boolean;
var
  Item: TRivItem;
begin
  result := (AnotherItem is TRivItem) and inherited IsSame(AnotherItem);
  if result then
  begin
    Item := TRivItem(AnotherItem);
    result := (Item.RiverStage = RiverStage)
      and (Item.Conductance = Conductance)
      and (Item.RiverBottom = RiverBottom)
      and (Item.GwtConcentrations.IsSame(GwtConcentrations));
  end;
end;

procedure TRivItem.RemoveFormulaObjects;
begin
  frmGoPhast.PhastModel.FormulaManager.Remove(FRiverBottom,
    GlobalRemoveModflowBoundaryItemSubscription, GlobalRestoreModflowBoundaryItemSubscription, self);
  frmGoPhast.PhastModel.FormulaManager.Remove(FConductance,
    GlobalRemoveModflowBoundaryItemSubscription, GlobalRestoreModflowBoundaryItemSubscription, self);
  frmGoPhast.PhastModel.FormulaManager.Remove(FRiverStage,
    GlobalRemoveModflowBoundaryItemSubscription, GlobalRestoreModflowBoundaryItemSubscription, self);
end;

procedure TRivItem.SetBoundaryFormula(Index: integer; const Value: string);
var
  Item: TGwtConcStringValueItem;
begin
  inherited;
  case Index of
    RivStagePosition: RiverStage := Value;
    RivConductancePosition: Conductance := Value;
    RivBottomPosition: RiverBottom := Value;
    else
      begin
        Dec(Index, 3);
        while Index >= GwtConcentrations.Count do
        begin
          GwtConcentrations.Add;
        end;
        Item := GwtConcentrations[Index];
        Item.Value := Value;
      end;
  end;
end;

procedure TRivItem.SetRiverBottom(const Value: string);
begin
  UpdateFormulaBlocks(Value, RivBottomPosition, FRiverBottom);
end;

procedure TRivItem.SetRiverStage(const Value: string);
begin
  UpdateFormulaBlocks(Value, RivStagePosition, FRiverStage);
end;

procedure TRivItem.SetConductance(const Value: string);
begin
  UpdateFormulaBlocks(Value, RivConductancePosition, FConductance);
end;

procedure TRivItem.SetGwtConcentrations(const Value: TRivGwtConcCollection);
begin
  FGwtConcentrations.Assign(Value);
end;

{ TRivCollection }

function TRivCollection.GetTimeListLinkClass: TTimeListsModelLinkClass;
begin
  result := TRivTimeListLink;
end;

procedure TRivCollection.TestIfObservationsPresent(
  var EndOfLastStressPeriod: Double; var StartOfFirstStressPeriod: Double;
  var ObservationsPresent: Boolean);
var
  Boundary: TRivBoundary;
begin
  // If observations exist, the list of cells must
  // be identical in every stress period.
  // To do that, introduce dummy values in BoundaryValues
  // for times that are not defined explicitly.
  // Set their conductances to zero so they have no effect
  // on the model.
  Boundary := BoundaryGroup as TRivBoundary;
  Boundary.TestIfObservationsPresent(EndOfLastStressPeriod,
    StartOfFirstStressPeriod, ObservationsPresent);
end;

procedure TRivCollection.AddSpecificBoundary(AModel: TBaseModel);
begin
  AddBoundary(TRivStorage.Create(AModel));
end;

function TRivCollection.AdjustedFormula(FormulaIndex,
  ItemIndex: integer): string;
var
  Boundary: TRivBoundary;
  ScreenObject: TScreenObject;
  Item: TRivItem;
begin
  Item := Items[ItemIndex] as TRivItem;
  if FormulaIndex = RivConductancePosition then
  begin
    Boundary := BoundaryGroup as TRivBoundary;
    ScreenObject := Boundary.ScreenObject as TScreenObject;
    case Boundary.FormulaInterpretation of
      fiSpecific:
        begin
          if ScreenObject.ScreenObjectLength = 0 then
          begin
            result := Item.Conductance;
          end
          else if ScreenObject.Closed then
          begin
            result := '(' + Item.Conductance
              + ') * ' + StrObjectIntersectArea;
          end
          else
          begin
            result := '(' + Item.Conductance
              + ') * ' + StrObjectSectionIntersectLength;
          end;
        end;
      fiDirect:
        begin
          result := Item.Conductance;
        end;
      fiTotal:
        begin
          if ScreenObject.ScreenObjectLength = 0 then
          begin
            result := Item.Conductance;
          end
          else if ScreenObject.Closed then
          begin
            result := '((' + Item.Conductance
              + ') * ' + StrObjectIntersectArea + ') / ' + StrObjectArea;
          end
          else
          begin
            result := '((' + Item.Conductance