unit ModflowLakUnit;

interface

uses Windows, ZLib, SysUtils, Classes, Contnrs, OrderedCollectionUnit,
  ModflowBoundaryUnit, ModflowCellUnit, DataSetUnit, FormulaManagerUnit,
  SubscriptionUnit, GoPhastTypes, PestObsUnit;

type
  TLakRecord = record
    Cell: TCellLocation;
    MinimumStage: double;
    MaximumStage: double;
    Precipitation: double;
    Evaporation: double;
    OverlandRunoff: double;
    Withdrawal: double;
    MinimumStageAnnotation: string;
    MaximumStageAnnotation: string;
    PrecipitationAnnotation: string;
    EvaporationAnnotation: string;
    OverlandRunoffAnnotation: string;
    WithdrawalAnnotation: string;
    procedure Cache(Comp: TCompressionStream; Strings: TStringList);
    procedure Restore(Decomp: TDecompressionStream; Annotations: TStringList);
    procedure RecordStrings(Strings: TStringList);
  end;

  TLakArray = array of TLakRecord;

  TLakStorage = class(TCustomBoundaryStorage)
  private
    FLakArray: TLakArray;
    function GetLakArray: TLakArray;
  protected
    procedure Restore(DecompressionStream: TDecompressionStream; Annotations: TStringList); override;
    procedure Store(Compressor: TCompressionStream); override;
    procedure Clear; override;
  public
    property LakArray: TLakArray read GetLakArray;
  end;

  // @name represents a MODFLOW Drain boundary for one time interval.
  // @name is stored by @link(TResCollection).
  TLakItem = class(TCustomModflowBoundaryItem)
  private
    FMaximumStage: TFormulaObject;
    FPrecipitation: TFormulaObject;
    FMinimumStage: TFormulaObject;
    FWithdrawal: TFormulaObject;
    FOverlandRunoff: TFormulaObject;
    FEvaporation: TFormulaObject;
    procedure SetEvaporation(const Value: string);
    procedure SetMaximumStage(const Value: string);
    procedure SetMinimumStage(const Value: string);
    procedure SetOverlandRunoff(const Value: string);
    procedure SetPrecipitation(const Value: string);
    procedure SetWithdrawal(const Value: string);
    function ConvertString(Const AString: string): double;
    function GetEvaporation: string;
    function GetMaximumStage: string;
    function GetMinimumStage: string;
    function GetOverlandRunoff: string;
    function GetPrecipitation: string;
    function GetWithdrawal: string;
  protected
    procedure AssignObserverEvents(Collection: TCollection); override;
    procedure CreateFormulaObjects; override;
    procedure GetPropertyObserver(Sender: TObject; List: TList); override;
    procedure RemoveFormulaObjects; override;
    // See @link(BoundaryFormula).
    function GetBoundaryFormula(Index: integer): string; override;
    // See @link(BoundaryFormula).
    procedure SetBoundaryFormula(Index: integer; const Value: string); override;
    // @name checks whether AnotherItem is the same as the current @classname.
    function IsSame(AnotherItem: TOrderedItem): boolean; override;
    function BoundaryFormulaCount: integer; override;
  public
    function SSMN: double;
    function SSMX: double;
    function PRCPLK: double;
    function EVAPLK: double;
    function RNF: double;
    function WTHDRW: double;
    Destructor Destroy; override;
  published
    // @name copies Source to this @classname.
    procedure Assign(Source: TPersistent);override;
    property MinimumStage: string read GetMinimumStage write SetMinimumStage;
    property MaximumStage: string read GetMaximumStage write SetMaximumStage;
    property Precipitation: string read GetPrecipitation write SetPrecipitation;
    property Evaporation: string read GetEvaporation write SetEvaporation;
    property OverlandRunoff: string read GetOverlandRunoff write SetOverlandRunoff;
    property Withdrawal: string read GetWithdrawal write SetWithdrawal;
  end;

  TLak_Cell = class(TValueCell)
  private
    Values: TLakRecord;
    StressPeriod: integer;
    function GetEvaporation: double;
    function GetMaximumStage: double;
    function GetMinimumStage: double;
    function GetOverlandRunoff: double;
    function GetPrecipitation: double;
    function GetWithdrawal: double;
    function GetEvaporationAnnotation: string;
    function GetMaximumStageAnnotation: string;
    function GetMinimumStageAnnotation: string;
    function GetOverlandRunoffAnnotation: string;
    function GetPrecipitationAnnotation: string;
    function GetWithdrawalAnnotation: string;
  protected
    function GetColumn: integer; override;
    function GetLayer: integer; override;
    function GetRow: integer; override;
    procedure SetColumn(const Value: integer); override;
    procedure SetLayer(const Value: integer); override;
    procedure SetRow(const Value: integer); override;
    function GetIntegerValue(Index: integer; AModel: TBaseModel): integer; override;
    function GetRealValue(Index: integer; AModel: TBaseModel): double; override;
    function GetRealAnnotation(Index: integer; AModel: TBaseModel): string; override;
    function GetIntegerAnnotation(Index: integer; AModel: TBaseModel): string; override;
    procedure Cache(Comp: TCompressionStream; Strings: TStringList); override;
    procedure Restore(Decomp: TDecompressionStream; Annotations: TStringList); override;
    function GetSection: integer; override;
    procedure RecordStrings(Strings: TStringList); override;
  public
    property MinimumStage: double read GetMinimumStage;
    property MaximumStage: double read GetMaximumStage;
    property Precipitation: double read GetPrecipitation;
    property Evaporation: double read GetEvaporation;
    property OverlandRunoff: double read GetOverlandRunoff;
    property Withdrawal: double read GetWithdrawal;
    property MinimumStageAnnotation: string read GetMinimumStageAnnotation;
    property MaximumStageAnnotation: string read GetMaximumStageAnnotation;
    property PrecipitationAnnotation: string read GetPrecipitationAnnotation;
    property EvaporationAnnotation: string read GetEvaporationAnnotation;
    property OverlandRunoffAnnotation: string read GetOverlandRunoffAnnotation;
    property WithdrawalAnnotation: string read GetWithdrawalAnnotation;
  end;

  TLakTimeListLink = class(TTimeListsModelLink)
  private
    // @name is used to compute the stages for a series of
    // lake Boundaries over a series of time intervals.
    FMinimumStageData: TModflowTimeList;
    FMaximumStageData: TModflowTimeList;
    FPrecipitationData: TModflowTimeList;
    FEvaporationData: TModflowTimeList;
    FOverlandRunoffData: TModflowTimeList;
    FWithdrawalData: TModflowTimeList;
  protected
    procedure CreateTimeLists; override;
  public
    Destructor Destroy; override;
  end;

  // @name represents MODFLOW lake boundaries
  // for a series of time intervals.
  TLakCollection = class(TCustomMF_ArrayBoundColl)
  private
    procedure InvalidateMinStageData(Sender: TObject);
    procedure InvalidateMaxStageData(Sender: TObject);
    procedure InvalidatePrecipData(Sender: TObject);
    procedure InvalidateEvapData(Sender: TObject);
    procedure InvalidateRunoffData(Sender: TObject);
    procedure InvalidateWithdrawalData(Sender: TObject);
  protected
    function GetTimeListLinkClass: TTimeListsModelLinkClass; override;
    procedure AddSpecificBoundary(AModel: TBaseModel); override;
    // See @link(TCustomListArrayBoundColl.AssignArrayCellValues
    // TCustomListArrayBoundColl.AssignArrayCellValues)
    procedure AssignArrayCellValues(DataSets: TList; ItemIndex: Integer;
      AModel: TBaseModel); override;
    // See @link(TCustomListArrayBoundColl.InitializeTimeLists
    // TCustomListArrayBoundColl.InitializeTimeLists)
    procedure InitializeTimeLists(ListOfTimeLists: TList;
      AModel: TBaseModel); override;
    // See @link(TCustomNonSpatialBoundColl.ItemClass
    // TCustomNonSpatialBoundColl.ItemClass)
    class function ItemClass: TBoundaryItemClass; override;
    // @name calls inherited @name and then sets the length of
    // the @link(TResStorage.ResArray) at ItemIndex in
    // @link(TCustomMF_BoundColl.Boundaries) to BoundaryCount.
    // @SeeAlso(TCustomMF_BoundColl.SetBoundaryStartAndEndTime
    // TCustomMF_BoundColl.SetBoundaryStartAndEndTime)
    procedure SetBoundaryStartAndEndTime(BoundaryCount: Integer;
      Item: TCustomModflowBoundaryItem; ItemIndex: Integer; AModel: TBaseModel); override;
  end;

  TLakeTableItem = class(TPhastCollectionItem)
  private
    FSurfaceArea: double;
    FVolume: double;
    FStage: double;
    procedure SetStage(const Value: double);
    procedure SetSurfaceArea(const Value: double);
    procedure SetVolume(const Value: double);
    procedure ReadStage(Reader: TReader);
    procedure WriteStage(Writer: TWriter);
    procedure ReadVolume(Reader: TReader);
    procedure WriteVolume(Writer: TWriter);
    procedure ReadSurfaceArea(Reader: TReader);
    procedure WriteSurfaceArea(Writer: TWriter);
  protected
    procedure DefineProperties(Filer: TFiler); override;
  public
    procedure Assign(Source: TPersistent); override;
  published
    property Stage: double read FStage write SetStage;
    property Volume: double read FVolume write SetVolume;
    property SurfaceArea: double read FSurfaceArea write SetSurfaceArea;
  end;

  TLakeTable = class(TPhastCollection)
  strict private
    { TODO -cRefactor : Consider replacing FModel with a TNotifyEvent or interface. }
    //
    FModel: TBaseModel;
  private
    function GetItems(Index: integer): TLakeTableItem;
    procedure SetItems(Index: integer; const Value: TLakeTableItem);
  public
    constructor Create(Model: TBaseModel);
    property Items[Index: integer]: TLakeTableItem read GetItems
      write SetItems; default;
    function Add: TLakeTableItem;
    { TODO -cRefactor : Consider replacing Model with a TNotifyEvent or interface. }
    //
    property Model: TBaseModel read FModel;
  end;

  TLakeTableChoice = (lctInternal, lctExternal);

  TExternalLakeTable = class(TGoPhastPersistent)
  strict private
    FModel: TBaseModel;
  private
    FLakeTableChoice: TLakeTableChoice;
    FLakeTable: TLakeTable;
    FFullLakeTableFileName: string;
    procedure SetLakeTable(const Value: TLakeTable);
    procedure SetLakeTableChoice(const Value: TLakeTableChoice);
    procedure SetFullLakeTableFileName(const Value: string);
    function GetLakeTableFileName: string;
    procedure SetLakeTableFileName(const Value: string);
  public
    { TODO -cRefactor : Consider replacing Model with an interface. }
    //
    property Model: TBaseModel read FModel;
    procedure Assign(Source: TPersistent); override;
    { TODO -cRefactor : Consider replacing Model with a TNotifyEvent or interface. }
    //
    Constructor Create(Model: TBaseModel);
    destructor Destroy; override;
    property FullLakeTableFileName: string read FFullLakeTableFileName
      write SetFullLakeTableFileName;
  published
    property LakeTableChoice: TLakeTableChoice read FLakeTableChoice
      write SetLakeTableChoice;
    property LakeTableFileName: string read GetLakeTableFileName
      write SetLakeTableFileName;
    property LakeTable: TLakeTable read FLakeTable write SetLakeTable;
  end;

  TLakeObs = class(TCustomTimeObservationItem)
  private
    FObsType: Integer;
    procedure SetObsType(const Value: Integer);
  protected
    function GetObsTypeIndex: Integer; override;
    procedure SetObsTypeIndex(const Value: Integer); override;
    function GetObsTypeString: string; override;
    procedure SetObsTypeString(const Value: string); override;
  public
    procedure Assign(Source: TPersistent); override;
    function ObservationType: string; override;
    function Units: string; override;
  published
    property ObsType: Integer read FObsType write SetObsType stored True;
    property GUID;
  end;

  TLakeObservations = class(TCustomComparisonCollection)
  private
    FGageOutputName: string;
    function GetLakeItem(Index: Integer): TLakeObs;
    procedure SetLakeItem(Index: Integer; const Value: TLakeObs);
  public
    Constructor Create(InvalidateModelEvent: TNotifyEvent; ScreenObject: TObject);
    property Items[Index: Integer]: TLakeObs read GetLakeItem
      write SetLakeItem; default;
    function Add: TLakeObs;
    property GageOutputName: string read FGageOutputName write FGageOutputName;
  end;

  TLakBoundary = class(TModflowBoundary)
  private
    FSill: double;
    FInitialStage: double;
    FCenterLake: integer;
    FLakeID: integer;
    FSubLakes: TList;
    FTrueLakeID: integer;
    FFluxCondGage: boolean;
    FStandardGage: boolean;
    FDeltaGage: boolean;
    FGage4: boolean;
    FExternalLakeTable: TExternalLakeTable;
    FObservations: TLakeObservations;
    procedure SetCenterLake(const Value: integer);
    procedure SetInitialStage(const Value: double);
    procedure SetSill(const Value: double);
    procedure SetLakeID(const Value: integer);
    function GetSubLakeCount: integer;
    function GetSubLake(Index: Integer): TObject;
    procedure SetDeltaGage(const Value: boolean);
    procedure SetFluxCondGage(const Value: boolean);
    procedure SetStandardGage(const Value: boolean);
    function GetOutType: integer;
    procedure SetGage4(const Value: boolean);
    procedure SetExternalLakeTable(const Value: TExternalLakeTable);
    procedure SetObservations(const Value: TLakeObservations);
  protected
    procedure AssignCells(BoundaryStorage: TCustomBoundaryStorage;
      ValueTimeList: TList; AModel: TBaseModel); override;
    class function BoundaryCollectionClass: TMF_BoundCollClass; override;
  public
    procedure Assign(Source: TPersistent); override;
    procedure GetCellValues(ValueTimeList: TList; ParamList: TStringList;
      AModel: TBaseModel); override;
    Constructor Create(Model: TBaseModel; ScreenObject: TObject);
    // @name destroys the current instance of @classname.  Do not call
    // @name directly.  Call Free instead.
    Destructor Destroy; override;
    property SubLakeCount: integer read GetSubLakeCount;
    property SubLakes[Index: integer]: TObject read GetSubLake;
    procedure ClearSubLakes;
    procedure AddSubLake(Lake: TObject);
    property TrueLakeID: integer read FTrueLakeID write FTrueLakeID;
    procedure DeleteSubLake(Index: integer);
    property OutType: integer read GetOutType;
  published
    property InitialStage: double read FInitialStage write SetInitialStage;
    property CenterLake: integer read FCenterLake write SetCenterLake;
    property Sill: double read FSill write SetSill;
    property LakeID: integer read FLakeID write SetLakeID;
    property StandardGage: boolean read FStandardGage write SetStandardGage;
    property FluxCondGage: boolean read FFluxCondGage write SetFluxCondGage;
    property DeltaGage: boolean read FDeltaGage write SetDeltaGage;
    property Gage4: boolean read FGage4 write SetGage4;
    property ExternalLakeTable: TExternalLakeTable read FExternalLakeTable write SetExternalLakeTable;
    property Observations: TLakeObservations read FObservations
      write SetObservations
      {$IFNDEF PEST}
      stored False
      {$ENDIF}
      ;
  end;

var
  LakeGageOutputTypes: TStringList;
  LakeGageUnits: TStringList;

implementation

uses RbwParser, ScreenObjectUnit, PhastModelUnit, ModflowTimeUnit,
  ModflowTransientListParameterUnit, TempFiles,
  frmFormulaErrorsUnit, frmGoPhastUnit;

resourcestring
  StrEvaporationForThe = '(evaporation for the Lake package)';
  StrPrecipitationForT = '(precipitation for the Lake package)';
  StrRunoffForTheLake = '(runoff for the Lake package)';
  StrMinimumStageForT = '(minimum stage for the Lake package)';
  StrMaximumStageForT = '(maximum stage for the Lake package)';
  StrWithdrawalForThe = '(withdrawal for the Lake package)';
  StrMinimumStage = 'Minimum stage';
  StrMaximumStage = 'Maximum stage';
  StrPrecipitation = 'Precipitation';
  StrEvaporation = 'Evaporation';
  StrOverlandRunoff = 'Overland runoff';
  StrWithdrawal = 'Withdrawal';

const
  MinimumStagePosition = 0;
  MaximumStagePosition = 1;
  PrecipitationPosition = 2;
  EvaporationPosition = 3;
  OverlandRunoffPosition = 4;
  WithdrawalPosition = 5;

//  StreamGageOutputTypes: TStringList;

procedure InitializeGageOutputTypes;
begin
  LakeGageOutputTypes := TStringList.Create;
  LakeGageUnits := TStringList.Create;
  
  LakeGageOutputTypes.CaseSensitive := False;
  
  LakeGageOutputTypes.Add('Stage(H)');    LakeGageUnits.Add('L');
  LakeGageOutputTypes.Add('Volume');      LakeGageUnits.Add('L3');
  LakeGageOutputTypes.Add('Precip.');     LakeGageUnits.Add('L3');
  LakeGageOutputTypes.Add('Evap.');       LakeGageUnits.Add('L3');
  LakeGageOutputTypes.Add('Runoff');      LakeGageUnits.Add('L3');
  LakeGageOutputTypes.Add('GW-Inflw');    LakeGageUnits.Add('L3');
  LakeGageOutputTypes.Add('GW-Outflw');   LakeGageUnits.Add('L3');
  LakeGageOutputTypes.Add('SW-Inflw');    LakeGageUnits.Add('L3');
  LakeGageOutputTypes.Add('SW-Outflw');   LakeGageUnits.Add('L3');
  LakeGageOutputTypes.Add('Withdrawal');  LakeGageUnits.Add('L3');
  LakeGageOutputTypes.Add('Lake-Inflx');  LakeGageUnits.Add('L3');
  LakeGageOutputTypes.Add('Total-Cond.'); LakeGageUnits.Add('L2/T');
  LakeGageOutputTypes.Add('Del-H-TS');    LakeGageUnits.Add('L/T');
  LakeGageOutputTypes.Add('Del-V-TS');    LakeGageUnits.Add('L3/T');
  LakeGageOutputTypes.Add('Del-H-Cum');   LakeGageUnits.Add('L');
  LakeGageOutputTypes.Add('Del-V-Cum');   LakeGageUnits.Add('L3');
end;


{ TLakItem }

procedure TLakItem.Assign(Source: TPersistent);
var
  Lak: TLakItem;
begin
  // if Assign is updated, update IsSame too.
  if Source is TLakItem then
  begin
    Lak := TLakItem(Source);
    MinimumStage := Lak.MinimumStage;
    MaximumStage := Lak.MaximumStage;
    Precipitation := Lak.Precipitation;
    Evaporation := Lak.Evaporation;
    OverlandRunoff := Lak.OverlandRunoff;
    Withdrawal := Lak.Withdrawal;
  end;
  inherited;
end;

procedure TLakItem.AssignObserverEvents(Collection: TCollection);
var
  ParentCollection: TLakCollection;
  MinStageObserver: TObserver;
  MaxStageObserver: TObserver;
  PrecipObserver: TObserver;
  EvapObserver: TObserver;
  RunoffObserver: TObserver;
  WithdrawalObserver: TObserver;
begin
  ParentCollection := Collection as TLakCollection;
  MinStageObserver := FObserverList[MinimumStagePosition];
  MinStageObserver.OnUpToDateSet := ParentCollection.InvalidateMinStageData;
  MaxStageObserver := FObserverList[MaximumStagePosition];
  MaxStageObserver.OnUpToDateSet := ParentCollection.InvalidateMaxStageData;
  PrecipObserver := FObserverList[PrecipitationPosition];
  PrecipObserver.OnUpToDateSet := ParentCollection.InvalidatePrecipData;
  EvapObserver := FObserverList[EvaporationPosition];
  EvapObserver.OnUpToDateSet := ParentCollection.InvalidateEvapData;
  RunoffObserver := FObserverList[OverlandRunoffPosition];
  RunoffObserver.OnUpToDateSet := ParentCollection.InvalidateRunoffData;
  WithdrawalObserver := FObserverList[WithdrawalPosition];
  WithdrawalObserver.OnUpToDateSet := ParentCollection.InvalidateWithdrawalData;
end;

function TLakItem.BoundaryFormulaCount: integer;
begin
  result := 6;
end;

function TLakItem.ConvertString(const AString: string): double;
var
  Compiler: TRbwParser;
  Model: TPhastModel;
  OrderedCollection: TOrderedCollection;
  TempFormula: string;
begin
  OrderedCollection := Collection as TOrderedCollection;
  Model := OrderedCollection.Model as TPhastModel;
  Compiler := Model.rpThreeDFormulaCompiler;

  TempFormula := AString;
  Compiler.Compile(TempFormula);
  Compiler.CurrentExpression.Evaluate;
  result := Compiler.CurrentExpression.DoubleResult;
end;

procedure TLakItem.CreateFormulaObjects;
begin
  inherited;
  FMinimumStage := CreateFormulaObject(dso3D);
  FMaximumStage := CreateFormulaObject(dso3D);
  FPrecipitation := CreateFormulaObject(dso3D);
  FEvaporation := CreateFormulaObject(dso3D);
  FOverlandRunoff := CreateFormulaObject(dso3D);
  FWithdrawal := CreateFormulaObject(dso3D);
end;

destructor TLakItem.Destroy;
begin
  MinimumStage := '0';
  MaximumStage := '0';
  Precipitation := '0';
  Evaporation := '0';
  OverlandRunoff := '0';
  Withdrawal := '0';
  inherited;
end;

function TLakItem.EVAPLK: double;
var
  LocalScreenObject: TScreenObject;
begin
  try
    result := ConvertString(Evaporation);
  except on E: ERbwParserError do
    begin
      LocalScreenObject := ScreenObject as TScreenObject;
      frmFormulaErrors.AddFormulaError(LocalScreenObject.Name,
        StrEvaporationForThe,
        Evaporation, E.Message);
      Evaporation := '0.';
      result := ConvertString(Evaporation);
    end;
  end;
end;

function TLakItem.GetBoundaryFormula(Index: integer): string;
begin
  case Index of
    MinimumStagePosition: result := MinimumStage;
    MaximumStagePosition: result := MaximumStage;
    PrecipitationPosition: result := Precipitation;
    EvaporationPosition: result := Evaporation;
    OverlandRunoffPosition: result := OverlandRunoff;
    WithdrawalPosition: result := Withdrawal;
    else Assert(False);
  end;
end;

function TLakItem.GetEvaporation: string;
begin
  Result := FEvaporation.Formula;
  ResetItemObserver(EvaporationPosition);
end;

function TLakItem.GetMaximumStage: string;
begin
  Result := FMaximumStage.Formula;
  ResetItemObserver(MaximumStagePosition);
end;

function TLakItem.GetMinimumStage: string;
begin
  Result := FMinimumStage.Formula;
  ResetItemObserver(MinimumStagePosition);
end;

function TLakItem.GetOverlandRunoff: string;
begin
  Result := FOverlandRunoff.Formula;
  ResetItemObserver(OverlandRunoffPosition);
end;

function TLakItem.GetPrecipitation: string;
begin
  Result := FPrecipitation.Formula;
  ResetItemObserver(PrecipitationPosition);
end;

procedure TLakItem.GetPropertyObserver(Sender: TObject; List: TList);
begin
  if Sender = FMinimumStage then
  begin
    List.Add(FObserverList[MinimumStagePosition]);
  end;
  if Sender = FMaximumStage then
  begin
    List.Add(FObserverList[MaximumStagePosition]);
  end;
  if Sender = FPrecipitation then
  begin
    List.Add(FObserverList[PrecipitationPosition]);
  end;
  if Sender = FEvaporation then
  begin
    List.Add(FObserverList[EvaporationPosition]);
  end;
  if Sender = FOverlandRunoff then
  begin
    List.Add(FObserverList[OverlandRunoffPosition]);
  end;
  if Sender = FWithdrawal then
  begin
    List.Add(FObserverList[WithdrawalPosition]);
  end;
end;

function TLakItem.GetWithdrawal: string;
begin
  Result := FWithdrawal.Formula;
  ResetItemObserver(WithdrawalPosition);
end;

function TLakItem.IsSame(AnotherItem: TOrderedItem): boolean;
var
  Item: TLakItem;
begin
  result := (AnotherItem is TLakItem) and inherited IsSame(AnotherItem);
  if result then
  begin
    Item := TLakItem(AnotherItem);
    result :=
      (Item.MinimumStage = MinimumStage)
      and (Item.MaximumStage = MaximumStage)
      and (Item.Precipitation = Precipitation)
      and (Item.Evaporation = Evaporation)
      and (Item.OverlandRunoff = OverlandRunoff)
      and (Item.Withdrawal = Withdrawal);
  end;
end;

function TLakItem.PRCPLK: double;
var
  LocalScreenObject: TScreenObject;
begin
  try
    result := ConvertString(Precipitation);
  except on E: ERbwParserError do
    begin
      LocalScreenObject := ScreenObject as TScreenObject;
      frmFormulaErrors.AddFormulaError(LocalScreenObject.Name,
        StrPrecipitationForT,
        Precipitation, E.Message);
      Precipitation := '0.';
      result := ConvertString(Precipitation);
    end;
  end;
end;

procedure TLakItem.RemoveFormulaObjects;
begin
  inherited;
  frmGoPhast.PhastModel.FormulaManager.Remove(FWithdrawal,
    GlobalRemoveModflowBoundaryItemSubscription, GlobalRestoreModflowBoundaryItemSubscription, self);
  frmGoPhast.PhastModel.FormulaManager.Remove(FOverlandRunoff,
    GlobalRemoveModflowBoundaryItemSubscription, GlobalRestoreModflowBoundaryItemSubscription, self);
  frmGoPhast.PhastModel.FormulaManager.Remove(FEvaporation,
    GlobalRemoveModflowBoundaryItemSubscription, GlobalRestoreModflowBoundaryItemSubscription, self);
  frmGoPhast.PhastModel.FormulaManager.Remove(FPrecipitation,
    GlobalRemoveModflowBoundaryItemSubscription, GlobalRestoreModflowBoundaryItemSubscription, self);
  frmGoPhast.PhastModel.FormulaManager.Remove(FMaximumStage,
    GlobalRemoveModflowBoundaryItemSubscription, GlobalRestoreModflowBoundaryItemSubscription, self);
  frmGoPhast.PhastModel.FormulaManager.Remove(FMinimumStage,
    GlobalRemoveModflowBoundaryItemSubscription, GlobalRestoreModflowBoundaryItemSubscription, self);
end;

function TLakItem.RNF: double;
var
  LocalScreenObject: TScreenObject;
begin
  try
    result := ConvertString(OverlandRunoff);
  except on E: ERbwParserError do
    begin
      LocalScreenObject := ScreenObject as TScreenObject;
      frmFormulaErrors.AddFormulaError(LocalScreenObject.Name,
        StrRunoffForTheLake,
        OverlandRunoff, E.Message);
      OverlandRunoff := '0.';
      result := ConvertString(OverlandRunoff);
    end;
  end;
end;

procedure TLakItem.SetBoundaryFormula(Index: integer; const Value: string);
begin
  inherited;
  case Index of
    MinimumStagePosition: MinimumStage := Value;
    MaximumStagePosition: MaximumStage := Value;
    PrecipitationPosition: Precipitation := Value;
    EvaporationPosition: Evaporation := Value;
    OverlandRunoffPosition: OverlandRunoff := Value;
    WithdrawalPosition: Withdrawal := Value;
    else Assert(False);
  end;
end;

procedure TLakItem.SetEvaporation(const Value: string);
begin
  UpdateFormula(Value, EvaporationPosition, FEvaporation);
end;

procedure TLakItem.SetMaximumStage(const Value: string);
begin
//  MinimumStagePosition = 0;
//  MaximumStagePosition = 1;
//  PrecipitationPosition = 2;
//  EvaporationPosition = 3;
//  OverlandRunoffPosition = 4;
//  WithdrawalPosition = 5;

//    FMaximumStage: TFormulaObject;
//    FPrecipitation: TFormulaObject;
//    FMinimumStage: TFormulaObject;
//    FWithdrawal: TFormulaObject;
//    FOverlandRunoff: TFormulaObject;
//    FEvaporation: TFormulaObject;
  UpdateFormula(Value, MaximumStagePosition, FMaximumStage);
end;

procedure TLakItem.SetMinimumStage(const Value: string);
begin
  UpdateFormula(Value, MinimumStagePosition, FMinimumStage);
end;

procedure TLakItem.SetOverlandRunoff(const Value: string);
begin
  UpdateFormula(Value, OverlandRunoffPosition, FOverlandRunoff);
end;

procedure TLakItem.SetPrecipitation(const Value: string);
begin
  UpdateFormula(Value, PrecipitationPosition, FPrecipitation);
end;

procedure TLakItem.SetWithdrawal(const Value: string);
begin
  UpdateFormula(Value, WithdrawalPosition, FWithdrawal);
end;

function TLakItem.SSMN: double;
var
  LocalScreenObject: TScreenObject;
begin
  try
    result := ConvertString(MinimumStage);
  except on E: ERbwParserError do
    begin
      LocalScreenObject := ScreenObject as TScreenObject;
      frmFormulaErrors.AddFormulaError(LocalScreenObject.Name,
        StrMinimumStageForT,
        MinimumStage, E.Message);
      MinimumStage := '0.';
      result := ConvertString(MinimumStage);
    end;
  end;
end;

function TLakItem.SSMX: double;
var
  LocalScreenObject: TScreenObject;
begin
  try
    result := ConvertString(MaximumStage);
  except on E: ERbwParserError do
    begin
      LocalScreenObject := ScreenObject as TScreenObject;
      frmFormulaErrors.AddFormulaError(LocalScreenObject.Name,
        StrMaximumStageForT,
        MaximumStage, E.Message);
      MaximumStage := '0.';
      result := ConvertString(MaximumStage);
    end;
  end;
end;

function TLakItem.WTHDRW: double;
var
  LocalScreenObject: TScreenObject;
begin
  try
  result := ConvertString(Withdrawal);
  except on E: ERbwParserError do
    begin
      LocalScreenObject := ScreenObject as TScreenObject;
      frmFormulaErrors.AddFormulaError(LocalScreenObject.Name,
        StrWithdrawalForThe,
        Withdrawal, E.Message);
      Withdrawal := '0.';
      result := ConvertString(Withdrawal);
    end;
  end;
end;

{ TLak_Cell }

procedure TLak_Cell.Cache(Comp: TCompressionStream; Strings: TStringList);
begin
  inherited;
  Values.Cache(Comp, Strings);
  WriteCompInt(Comp, StressPeriod);
end;

function TLak_Cell.GetColumn: integer;
begin
  result := Values.Cell.Column;
end;

function TLak_Cell.GetEvaporation: double;
begin
  result := Values.Evaporation;
end;

function TLak_Cell.GetEvaporationAnnotation: string;
begin
  result := Values.EvaporationAnnotation;
end;

function TLak_Cell.GetIntegerAnnotation(Index: integer; AModel: TBaseModel): string;
begin
  result := '';
  Assert(False);
end;

function TLak_Cell.GetIntegerValue(Index: integer; AModel: TBaseModel): integer;
begin
  result := 0;
  Assert(False);
end;

function TLak_Cell.GetLayer: integer;
begin
  result := Values.Cell.Layer;
end;

function TLak_Cell.GetMaximumStage: double;
begin
  result := Values.MaximumStage;
end;

function TLak_Cell.GetMaximumStageAnnotation: string;
begin
  result := Values.MaximumStageAnnotation;
end;

function TLak_Cell.GetMinimumStage: double;
begin
  result := Values.MinimumStage;
end;

function TLak_Cell.GetMinimumStageAnnotation: string;
begin
  result := Values.MinimumStageAnnotation;
end;

function TLak_Cell.GetOverlandRunoff: double;
begin
  result := Values.OverlandRunoff;
end;

function TLak_Cell.GetOverlandRunoffAnnotation: string;
begin
  result := Values.OverlandRunoffAnnotation;
end;

function TLak_Cell.GetPrecipitation: double;
begin
  result := Values.Precipitation;
end;

function TLak_Cell.GetPrecipitationAnnotation: string;
begin
  result := Values.PrecipitationAnnotation;
end;

function TLak_Cell.GetRealAnnotation(Index: integer; AModel: TBaseModel): string;
begin
  result := '';
  case Index of
    0: result := Values.MinimumStageAnnotation;
    1: result := Values.MaximumStageAnnotation;
    2: result := Values.PrecipitationAnnotation;
    3: result := Values.EvaporationAnnotation;
    4: result := Values.OverlandRunoffAnnotation;
    5: result := Values.WithdrawalAnnotation;
    else Assert(False);
  end;
end;

function TLak_Cell.GetRealValue(Index: integer; AModel: TBaseModel): double;
begin
  result := 0;
  case Index of