unit ModflowStrUnit;

interface

uses Windows, ZLib, SysUtils, Classes, Contnrs, ModflowBoundaryUnit,
  OrderedCollectionUnit, DataSetUnit, ModflowCellUnit, FormulaManagerUnit,
  SubscriptionUnit, SparseDataSets, RbwParser, GoPhastTypes;

type
  TStrRecord = record
    Cell: TCellLocation;
    Conductance: double;
    Stage: double;
    BedTop: double;
    BedBottom: double;
    Flow: double;
    Width: double;
    Slope: Double;
    Roughness: double;
    StartingTime: double;
    EndingTime: double;
    ConductanceAnnotation: string;
    StageAnnotation: string;
    BedTopAnnotation: string;
    BedBottomAnnotation: string;
    FlowAnnotation: string;
    WidthAnnotation: string;
    SlopeAnnotation: string;
    RoughnessAnnotation: string;
    SegmentNumber: Integer;
    ReachNumber: Integer;

    ConductancePest: string;
    StagePest: string;
    BedTopPest: string;
    BedBottomPest: string;
    FlowPest: string;
    WidthPest: string;
    SlopePest: string;
    RoughnessPest: string;

    ConductancePestSeriesName: string;
    StagePestSeriesName: string;
    BedTopPestSeriesName: string;
    BedBottomPestSeriesName: string;
    FlowPestSeriesName: string;
    WidthPestSeriesName: string;
    SlopePestSeriesName: string;
    RoughnessPestSeriesName: string;

    ConductancePestSeriesMethod: TPestParamMethod;
    StagePestSeriesMethod: TPestParamMethod;
    BedTopPestSeriesMethod: TPestParamMethod;
    BedBottomPestSeriesMethod: TPestParamMethod;
    FlowPestSeriesMethod: TPestParamMethod;
    WidthPestSeriesMethod: TPestParamMethod;
    SlopePestSeriesMethod: TPestParamMethod;
    RoughnessPestSeriesMethod: TPestParamMethod;

    procedure Cache(Comp: TCompressionStream; Strings: TStringList);
    procedure Restore(Decomp: TDecompressionStream; Annotations: TStringList);
    procedure RecordStrings(Strings: TStringList);
  end;

  TStrArray = array of TStrRecord;

  TStrStorage = class(TCustomBoundaryStorage)
  private
    FStrArray: TStrArray;
    function GetStrArray: TStrArray;
  protected
    procedure Restore(DecompressionStream: TDecompressionStream; Annotations: TStringList); override;
    procedure Store(Compressor: TCompressionStream); override;
    procedure Clear; override;
  public
    property StrArray: TStrArray read GetStrArray;
  end;

  // @name represents a MODFLOW STR boundary for one time interval.
  // @name is stored by @link(TStrCollection).
  TStrItem = class(TCustomModflowBoundaryItem)
  private
    FOutflowSegment: integer;
    FDiversionSegment: integer;
    // See @link(Stage).
    procedure SetStage(const Value: string);
    // See @link(Conductance).
    procedure SetConductance(const Value: string);
    function GetConductance: string;
    function GetStage: string;
    function GetBedBottom: string;
    function GetBedTop: string;
    function GetFlow: string;
    procedure SetBedBottom(const Value: string);
    procedure SetBedTop(const Value: string);
    procedure SetFlow(const Value: string);
    function GetRoughness: string;
    function GetSlope: string;
    function GetWidth: string;
    procedure SetRoughness(const Value: string);
    procedure SetSlope(const Value: string);
    procedure SetWidth(const Value: string);
    procedure SetDiversionSegment(const Value: integer);
    procedure SetOutflowSegment(const Value: integer);
    function GetSegmentNumber: Integer;
  protected
    // See @link(Stage).
    FStage: TFormulaObject;
    // See @link(Conductance).
    FConductance: TFormulaObject;
    FBedTop: TFormulaObject;
    FBedBottom: TFormulaObject;
    FFlow: TFormulaObject;
    FWidth: TFormulaObject;
    Fslope: TFormulaObject;
    FRoughness: TFormulaObject;
    procedure AssignObserverEvents(Collection: TCollection); override;
    procedure CreateFormulaObjects; override;
    procedure GetPropertyObserver(Sender: TObject; List: TList); override;
    procedure RemoveFormulaObjects; override;
    // See @link(BoundaryFormula).
    function GetBoundaryFormula(Index: integer): string; override;
    // See @link(BoundaryFormula).
    procedure SetBoundaryFormula(Index: integer; const Value: string); override;
    // @name checks whether AnotherItem is the same as the current @classname.
    function IsSame(AnotherItem: TOrderedItem): boolean; override;
    procedure InvalidateModel; override;
    function BoundaryFormulaCount: integer; override;
  public
    // @name copies Source to this @classname.
    procedure Assign(Source: TPersistent); override;
    Destructor Destroy; override;
    property SegmentNumber: Integer read GetSegmentNumber;
  published
    // @name is the formula used to set the stage
    // of this boundary.
    property Stage: string read GetStage write SetStage;
    // @name is the formula used to set the conductance
    // or the conductance multiplier of this boundary.
    property Conductance: string read GetConductance write SetConductance;
    property BedTop: string read GetBedTop write SetBedTop;
    property BedBottom: string read GetBedBottom write SetBedBottom;
    property Flow: string read GetFlow write SetFlow;
    property Width: string read GetWidth write SetWidth;
    property Slope: string read GetSlope write SetSlope;
    property Roughness: string read GetRoughness write SetRoughness;
    property OutflowSegment: integer read FOutflowSegment
      write SetOutflowSegment;
    property DiversionSegment: integer read FDiversionSegment
      write SetDiversionSegment;
  end;

  TStrTimeListLink = class(TTimeListsModelLink)
  private
    // @name is used to perform notifications of the Stages for a series of
    // Stream Boundaries over a series of time intervals.
    FStageData: TModflowTimeList;
    // @name is used to perform notifications of the Conductances
    // for a series of
    // STR Boundaries over a series of time intervals.
    FConductanceData: TModflowTimeList;
    FBedTopData: TModflowTimeList;
    FBedBottomData: TModflowTimeList;
    FFlowData: TModflowTimeList;
    FWidthData: TModflowTimeList;
    FSlopeData: TModflowTimeList;
    FroughnessData: TModflowTimeList;
    FStrSegmentNumberData: TModflowTimeList;
    FStrOutflowSegmentNumberData: TModflowTimeList;
    FStrReachNumberData: TModflowTimeList;
    FStrDiversionSegmentNumberData: TModflowTimeList;
  protected
    procedure CreateTimeLists; override;
  public
    Destructor Destroy; override;
  end;

  // @name represents MODFLOW STR boundaries
  // for a series of time intervals.
  TStrCollection = class(TCustomMF_ListBoundColl)
  private
    procedure InvalidateStageData(Sender: TObject);
    procedure InvalidateConductanceData(Sender: TObject);
    procedure InvalidateBedTopData(Sender: TObject);
    procedure InvalidateBedBottomData(Sender: TObject);
    procedure InvalidateFlowData(Sender: TObject);
    procedure InvalidateWidthData(Sender: TObject);
    procedure InvalidateSlopeData(Sender: TObject);
    procedure InvalidateRoughnessData(Sender: TObject);
    procedure FixItems;
  protected
    function GetTimeListLinkClass: TTimeListsModelLinkClass; override;
    procedure AssignListCellLocation(BoundaryStorage: TCustomBoundaryStorage;
      ACellList: TObject); override;
    procedure AssignCellList(Expression: TExpression; ACellList: TObject;
      BoundaryStorage: TCustomBoundaryStorage; BoundaryFunctionIndex: integer;
      Variables, DataSets: TList; AModel: TBaseModel; AScreenObject: TObject;
      PestName: string; PestSeriesName: string;
      PestSeriesMethod: TPestParamMethod); override;
    function AdjustedFormula(FormulaIndex, ItemIndex: integer): string;
      override;
    procedure AddSpecificBoundary(AModel: TBaseModel); override;
    procedure TestIfObservationsPresent(var EndOfLastStressPeriod: Double;
      var StartOfFirstStressPeriod: Double;
      var ObservationsPresent: Boolean); override;

    // See @link(TCustomNonSpatialBoundColl.ItemClass
    // TCustomNonSpatialBoundColl.ItemClass)
    class function ItemClass: TBoundaryItemClass; override;
    // @name calls inherited @name and then sets the length of
    // the @link(TStrStorage.StrArray) at ItemIndex in
    // @link(TCustomMF_BoundColl.Boundaries) to BoundaryCount.
    // @SeeAlso(TCustomMF_BoundColl.SetBoundaryStartAndEndTime
    // TCustomMF_BoundColl.SetBoundaryStartAndEndTime)
    procedure SetBoundaryStartAndEndTime(BoundaryCount: Integer;
      Item: TCustomModflowBoundaryItem; ItemIndex: Integer; AModel: TBaseModel);
      override;
  public
    constructor Create(Boundary: TModflowScreenObjectProperty;
      Model: TBaseModel; ScreenObject: TObject); override;
  end;

  // Each @name stores a @link(TStrCollection).
  // @classname is stored by @link(TModflowParameters).
  TStrParamItem = class(TModflowParamItem)
  protected
    class function BoundaryClass: TMF_BoundCollClass; override;
  end;

  TStr_Cell = class(TValueCell)
  private
    Values: TStrRecord;
    StressPeriod: integer;
    function GetStage: double;
    function GetConductance: double;
    function GetBedTop: double;
    function GetBedBottom: double;
    function GetFlow: double;
    function GetConductanceAnnotation: string;
    function GetStageAnnotation: string;
    function GetBedTopAnnotation: string;
    function GetBedBottomAnnotation: string;
    function GetFlowAnnotation: string;
    function GetRoughness: double;
    function GetRoughnessAnnotation: string;
    function GetSlope: double;
    function GetSlopeAnnotation: string;
    function GetWidth: double;
    function GetWidthAnnotation: string;
    procedure SetFlow(const Value: double);
    procedure SetFlowAnnotation(const Value: string);
    function GetBedBottomPest: string;
    function GetBedBottomPestSeriesMethod: TPestParamMethod;
    function GetBedBottomPestSeriesName: string;
    function GetBedTopPest: string;
    function GetBedTopPestSeriesMethod: TPestParamMethod;
    function GetBedTopPestSeriesName: string;
    function GetConductancePest: string;
    function GetConductancePestSeriesMethod: TPestParamMethod;
    function GetConductancePestSeriesName: string;
    function GetFlowPest: string;
    function GetFlowPestSeriesMethod: TPestParamMethod;
    function GetFlowPestSeriesName: string;
    function GetRoughnessPest: string;
    function GetRoughnessPestSeriesMethod: TPestParamMethod;
    function GetRoughnessPestSeriesName: string;
    function GetSlopePest: string;
    function GetSlopePestSeriesMethod: TPestParamMethod;
    function GetSlopePestSeriesName: string;
    function GetStagePest: string;
    function GetStagePestSeriesMethod: TPestParamMethod;
    function GetStagePestSeriesName: string;
    function GetWidthPest: string;
    function GetWidthPestSeriesMethod: TPestParamMethod;
    function GetWidthPestSeriesName: string;
  protected
    function GetColumn: integer; override;
    function GetLayer: integer; override;
    function GetRow: integer; override;
    procedure SetColumn(const Value: integer); override;
    procedure SetLayer(const Value: integer); override;
    procedure SetRow(const Value: integer); override;
    function GetIntegerValue(Index: integer; AModel: TBaseModel): integer; override;
    function GetRealValue(Index: integer; AModel: TBaseModel): double; override;
    function GetRealAnnotation(Index: integer; AModel: TBaseModel): string; override;
    function GetIntegerAnnotation(Index: integer; AModel: TBaseModel): string; override;
    procedure Cache(Comp: TCompressionStream; Strings: TStringList); override;
    procedure Restore(Decomp: TDecompressionStream; Annotations: TStringList); override;
    function GetSection: integer; override;
    procedure RecordStrings(Strings: TStringList); override;
  public
    property Conductance: double read GetConductance;
    property Stage: double read GetStage;
    property BedTop: double read GetBedTop;
    property BedBottom: double read GetBedBottom;
    property Flow: double read GetFlow write SetFlow;
    property Width: double read GetWidth;
    property Slope: double read GetSlope;
    property Roughness: double read GetRoughness;
    property SegmentNumber: Integer read Values.SegmentNumber
      write Values.SegmentNumber;
    property ReachNumber: Integer read Values.ReachNumber
      write Values.ReachNumber;
    property ConductanceAnnotation: string read GetConductanceAnnotation;
    property StageAnnotation: string read GetStageAnnotation;
    property BedTopAnnotation: string read GetBedTopAnnotation;
    property BedBottomAnnotation: string read GetBedBottomAnnotation;
    property FlowAnnotation: string read GetFlowAnnotation write SetFlowAnnotation;
    property WidthAnnotation: string read GetWidthAnnotation;
    property SlopeAnnotation: string read GetSlopeAnnotation;
    property RoughnessAnnotation: string read GetRoughnessAnnotation;
    function IsIdentical(AnotherCell: TValueCell): boolean; override;
    // PEST properties

    property ConductancePest: string read GetConductancePest;
    property StagePest: string read GetStagePest;
    property BedTopPest: string read GetBedTopPest;
    property BedBottomPest: string read GetBedBottomPest;
    property FlowPest: string read GetFlowPest;
    property WidthPest: string read GetWidthPest;
    property SlopePest: string read GetSlopePest;
    property RoughnessPest: string read GetRoughnessPest;

    property ConductancePestSeriesName: string read GetConductancePestSeriesName;
    property StagePestSeriesName: string read GetStagePestSeriesName;
    property BedTopPestSeriesName: string read GetBedTopPestSeriesName;
    property BedBottomPestSeriesName: string read GetBedBottomPestSeriesName;
    property FlowPestSeriesName: string read GetFlowPestSeriesName;
    property WidthPestSeriesName: string read GetWidthPestSeriesName;
    property SlopePestSeriesName: string read GetSlopePestSeriesName;
    property RoughnessPestSeriesName: string read GetRoughnessPestSeriesName;

    property ConductancePestSeriesMethod: TPestParamMethod read GetConductancePestSeriesMethod;
    property StagePestSeriesMethod: TPestParamMethod read GetStagePestSeriesMethod;
    property BedTopPestSeriesMethod: TPestParamMethod read GetBedTopPestSeriesMethod;
    property BedBottomPestSeriesMethod: TPestParamMethod read GetBedBottomPestSeriesMethod;
    property FlowPestSeriesMethod: TPestParamMethod read GetFlowPestSeriesMethod;
    property WidthPestSeriesMethod: TPestParamMethod read GetWidthPestSeriesMethod;
    property SlopePestSeriesMethod: TPestParamMethod read GetSlopePestSeriesMethod;
    property RoughnessPestSeriesMethod: TPestParamMethod read GetRoughnessPestSeriesMethod;

  end;

  // @name represents the MODFLOW STR boundaries associated with
  // a single @link(TScreenObject).
  //
  // FormulaInterpretation determines whether the @Link(TStrItem.Conductance
  // TStrItem.Conductance) formulas represent
  // @unorderedlist(
  //   @item(fiSpecific - Conductance / the length or area of
  //     intersection between the @link(TScreenObject) and grid cell.)
  //   @item(fiTotal - Conductance.)
  // )
  // @seealso(TStrCollection)
  TStrBoundary = class(TSpecificModflowBoundary)
  private
    FSegmentNumber: Integer;
    FConductancePestMethod: TPestParamMethod;
    FRoughnessPestMethod: TPestParamMethod;
    FSlopePestMethod: TPestParamMethod;
    FWidthPestMethod: TPestParamMethod;
    FFlowPestMethod: TPestParamMethod;
    FBedBottomPestMethod: TPestParamMethod;
    FStagePestMethod: TPestParamMethod;
    FBedTopPestMethod: TPestParamMethod;
    FStreamConductanceFormula: TFormulaObject;
    FStreamBedTopFormula: TFormulaObject;
    FStreamBedBottomFormula: TFormulaObject;
    FStreamFlowFormula: TFormulaObject;
    FStreamStageFormula: TFormulaObject;
    FStreamWidthFormula: TFormulaObject;
    FStreamSlopeFormula: TFormulaObject;
    FStreamRoughnessFormula: TFormulaObject;
    FBedBottomPestObserver: TObserver;
    FBedTopPestObserver: TObserver;
    FConductancePestObserver: TObserver;
    FRoughnessPestObserver: TObserver;
    FStagePestObserver: TObserver;
    FWidthPestObserver: TObserver;
    FSlopePestObserver: TObserver;
    FFlowPestObserver: TObserver;
    FUsedObserver: TObserver;
    procedure TestIfObservationsPresent(var EndOfLastStressPeriod: Double;
      var StartOfFirstStressPeriod: Double;
      var ObservationsPresent: Boolean);
    procedure SetSegmentNumber(const Value: Integer);
    function GetBedBottomPest: string;
    function GetBedBottomPestObserver: TObserver;
    function GetBedTopPest: string;
    function GetBedTopPestObserver: TObserver;
    function GetConductancePest: string;
    function GetConductancePestObserver: TObserver;
    function GetFlowPest: string;
    function GetFlowPestObserver: TObserver;
    function GetRoughnessPest: string;
    function GetRoughnessPestObserver: TObserver;
    function GetSlopePest: string;
    function GetSlopePestObserver: TObserver;
    function GetStagePest: string;
    function GetStagePestObserver: TObserver;
    function GetWidthPest: string;
    function GetWidthPestObserver: TObserver;
    procedure SetBedBottomPest(const Value: string);
    procedure SetBedTopPest(const Value: string);
    procedure SetConductancePest(const Value: string);
    procedure SetFlowPest(const Value: string);
    procedure SetRoughnessPest(const Value: string);
    procedure SetSlopePest(const Value: string);
    procedure SetStagePest(const Value: string);
    procedure SetWidthPest(const Value: string);
    procedure SetBedBottomPestMethod(const Value: TPestParamMethod);
    procedure SetBedTopPestMethod(const Value: TPestParamMethod);
    procedure SetConductancePestMethod(const Value: TPestParamMethod);
    procedure SetFlowPestMethod(const Value: TPestParamMethod);
    procedure SetRoughnessPestMethod(const Value: TPestParamMethod);
    procedure SetSlopePestMethod(const Value: TPestParamMethod);
    procedure SetStagePestMethod(const Value: TPestParamMethod);
    procedure SetWidthPestMethod(const Value: TPestParamMethod);
    procedure InvalidateStageData(Sender: TObject);
    procedure InvalidateConductanceData(Sender: TObject);
    procedure InvalidateBedTopData(Sender: TObject);
    procedure InvalidateBedBottomData(Sender: TObject);
    procedure InvalidateFlowData(Sender: TObject);
    procedure InvalidateWidthData(Sender: TObject);
    procedure InvalidateSlopeData(Sender: TObject);
    procedure InvalidateRoughnessData(Sender: TObject);
  protected
    // @name fills ValueTimeList with a series of TObjectLists - one for
    // each stress period.  Each such TObjectList is filled with
    // @link(TStr_Cell)s for that stress period.
    procedure AssignCells(BoundaryStorage: TCustomBoundaryStorage;
      ValueTimeList: TList; AModel: TBaseModel); override;
    // See @link(TModflowBoundary.BoundaryCollectionClass
    // TModflowBoundary.BoundaryCollectionClass).
    class function BoundaryCollectionClass: TMF_BoundCollClass; override;
    // See @link(TModflowParamBoundary.ModflowParamItemClass
    // TModflowParamBoundary.ModflowParamItemClass).
    class function ModflowParamItemClass: TModflowParamItemClass; override;
    function ParameterType: TParameterType; override;

    procedure HandleChangedValue(Observer: TObserver); //override;
    function GetUsedObserver: TObserver; //override;
    procedure GetPropertyObserver(Sender: TObject; List: TList); override;
    procedure CreateFormulaObjects; //override;
    function BoundaryObserverPrefix: string; override;
    procedure CreateObservers; //override;
    function GetPestBoundaryFormula(FormulaIndex: integer): string; override;
    procedure SetPestBoundaryFormula(FormulaIndex: integer;
      const Value: string); override;
    function GetPestBoundaryMethod(FormulaIndex: integer): TPestParamMethod;
      override;
    procedure SetPestBoundaryMethod(FormulaIndex: integer;
      const Value: TPestParamMethod); override;
    property ConductancePestObserver: TObserver read GetConductancePestObserver;
    property StagePestObserver: TObserver read GetStagePestObserver;
    property BedTopPestObserver: TObserver read GetBedTopPestObserver;
    property BedBottomPestObserver: TObserver read GetBedBottomPestObserver;
    property FlowPestObserver: TObserver read GetFlowPestObserver;
    property WidthPestObserver: TObserver read GetWidthPestObserver;
    property SlopePestObserver: TObserver read GetSlopePestObserver;
    property RoughnessPestObserver: TObserver read GetRoughnessPestObserver;
  public
    Constructor Create(Model: TBaseModel; ScreenObject: TObject);
    destructor Destroy; override;
    // @name insures that there are no time gaps in @link(TStrCollection)
    // by filling in any time gaps with inactive TStrItems.
    procedure FixItems;
    // @name copies @link(SegmentNumber) from the Source
    // @classname to this @classname and then calls inherited Assign.
    procedure Assign(Source: TPersistent); override;
    // @name fills ValueTimeList via a call to AssignCells for each
    // link  @link(TStrStorage) in
    // @link(TCustomMF_BoundColl.Boundaries Values.Boundaries);
    // Those represent non-parameter boundary conditions.
    // @name fills ParamList with the names of the
    // MODFLOW STR parameters that are in use.
    // The Objects property of ParamList has TObjectLists
    // Each such TObjectList is filled via a call to AssignCells
    // with each @link(TStrStorage) in @link(TCustomMF_BoundColl.Boundaries
    // Param.Param.Boundaries)
    // Those represent parameter boundary conditions.
    procedure GetCellValues(ValueTimeList: TList; ParamList: TStringList;
      AModel: TBaseModel); override;
    procedure InvalidateDisplay; override;
    class function DefaultBoundaryMethod(
      FormulaIndex: integer): TPestParamMethod; override;
  published
    property SegmentNumber: Integer read FSegmentNumber write SetSegmentNumber;
    property ConductancePest: string read GetConductancePest
      write SetConductancePest
      {$IFNDEF PEST}
      Stored False
      {$ENDIF}
      ;
    property StagePest: string read GetStagePest write SetStagePest
      {$IFNDEF PEST}
      Stored False
      {$ENDIF}
      ;
    property BedTopPest: string read GetBedTopPest write SetBedTopPest
      {$IFNDEF PEST}
      Stored False
      {$ENDIF}
      ;
    property BedBottomPest: string read GetBedBottomPest write SetBedBottomPest
      {$IFNDEF PEST}
      Stored False
      {$ENDIF}
      ;
    property FlowPest: string read GetFlowPest write SetFlowPest
      {$IFNDEF PEST}
      Stored False
      {$ENDIF}
      ;
    property WidthPest: string read GetWidthPest write SetWidthPest
      {$IFNDEF PEST}
      Stored False
      {$ENDIF}
      ;
    property SlopePest: string read GetSlopePest write SetSlopePest
      {$IFNDEF PEST}
      Stored False
      {$ENDIF}
      ;
    property RoughnessPest: string read GetRoughnessPest write SetRoughnessPest
      {$IFNDEF PEST}
      Stored False
      {$ENDIF}
      ;
    property ConductancePestMethod: TPestParamMethod read FConductancePestMethod
      write SetConductancePestMethod
      {$IFNDEF PEST}
      Stored False
      {$ENDIF}
      ;
    property StagePestMethod: TPestParamMethod read FStagePestMethod
      write SetStagePestMethod
      {$IFNDEF PEST}
      Stored False
      {$ENDIF}
      ;
    property BedTopPestMethod: TPestParamMethod read FBedTopPestMethod
      write SetBedTopPestMethod
      {$IFNDEF PEST}
      Stored False
      {$ENDIF}
      ;
    property BedBottomPestMethod: TPestParamMethod read FBedBottomPestMethod
      write SetBedBottomPestMethod
      {$IFNDEF PEST}
      Stored False
      {$ENDIF}
      ;
    property FlowPestMethod: TPestParamMethod read FFlowPestMethod
      write SetFlowPestMethod
      {$IFNDEF PEST}
      Stored False
      {$ENDIF}
      ;
    property WidthPestMethod: TPestParamMethod read FWidthPestMethod
      write SetWidthPestMethod
      {$IFNDEF PEST}
      Stored False
      {$ENDIF}
      ;
    property SlopePestMethod: TPestParamMethod read FSlopePestMethod
      write SetSlopePestMethod
      {$IFNDEF PEST}
      Stored False
      {$ENDIF}
      ;
    property RoughnessPestMethod: TPestParamMethod read FRoughnessPestMethod
      write SetRoughnessPestMethod
      {$IFNDEF PEST}
      Stored False
      {$ENDIF}
      ;

  end;

const
  StreamConductancePosition = 0;
  StreamBedTopPosition = 1;
  StreamBedBottomPosition = 2;
  StreamFlowPosition = 3;
  StreamStagePosition = 4;
  StreamWidthPosition = 5;
  StreamSlopePosition = 6;
  StreamRoughnessPosition = 7;

implementation

uses PhastModelUnit, ScreenObjectUnit, ModflowTimeUnit, TempFiles,
  frmGoPhastUnit, GIS_Functions, ModflowPackageSelectionUnit;

resourcestring
  StrHead = 'Head';
  StrStreambedTop = 'Streambed Top';
  StrStreambedBottom = 'Streambed Bottom';
  StrFlow = 'Flow';
  StrWidth = 'Width';
  StrSlope = 'Slope';
  StrRoughness = 'Roughness';
  StrSegmentNumber = 'Segment Number';
  StrOutflowSegmentNumber = 'Outflow Segment Number';
  StrDiversionSegmentNu = 'Diversion Segment Number';
  StrReachNumber = 'Reach Number';

{ TStrRecord }

procedure TStrRecord.Cache(Comp: TCompressionStream; Strings: TStringList);
begin
  WriteCompCell(Comp, Cell);
  WriteCompReal(Comp, Conductance);
  WriteCompReal(Comp, Stage);
  WriteCompReal(Comp, BedTop);
  WriteCompReal(Comp, BedBottom);
  WriteCompReal(Comp, Flow);
  WriteCompReal(Comp, Width);
  WriteCompReal(Comp, Slope);
  WriteCompReal(Comp, Roughness);
  WriteCompReal(Comp, StartingTime);
  WriteCompReal(Comp, EndingTime);
  WriteCompInt(Comp, SegmentNumber);
  WriteCompInt(Comp, ReachNumber);
  WriteCompInt(Comp, Strings.IndexOf(ConductanceAnnotation));
  WriteCompInt(Comp, Strings.IndexOf(StageAnnotation));
  WriteCompInt(Comp, Strings.IndexOf(BedTopAnnotation));
  WriteCompInt(Comp, Strings.IndexOf(BedBottomAnnotation));
  WriteCompInt(Comp, Strings.IndexOf(FlowAnnotation));
  WriteCompInt(Comp, Strings.IndexOf(WidthAnnotation));
  WriteCompInt(Comp, Strings.IndexOf(SlopeAnnotation));
  WriteCompInt(Comp, Strings.IndexOf(RoughnessAnnotation));

  WriteCompInt(Comp, Strings.IndexOf(ConductancePest));
  WriteCompInt(Comp, Strings.IndexOf(StagePest));
  WriteCompInt(Comp, Strings.IndexOf(BedTopPest));
  WriteCompInt(Comp, Strings.IndexOf(BedBottomPest));
  WriteCompInt(Comp, Strings.IndexOf(FlowPest));
  WriteCompInt(Comp, Strings.IndexOf(WidthPest));
  WriteCompInt(Comp, Strings.IndexOf(SlopePest));
  WriteCompInt(Comp, Strings.IndexOf(RoughnessPest));

  WriteCompInt(Comp, Strings.IndexOf(ConductancePestSeriesName));
  WriteCompInt(Comp, Strings.IndexOf(StagePestSeriesName));
  WriteCompInt(Comp, Strings.IndexOf(BedTopPestSeriesName));
  WriteCompInt(Comp, Strings.IndexOf(BedBottomPestSeriesName));
  WriteCompInt(Comp, Strings.IndexOf(FlowPestSeriesName));
  WriteCompInt(Comp, Strings.IndexOf(WidthPestSeriesName));
  WriteCompInt(Comp, Strings.IndexOf(SlopePestSeriesName));
  WriteCompInt(Comp, Strings.IndexOf(RoughnessPestSeriesName));

  WriteCompInt(Comp, Ord(ConductancePestSeriesMethod));
  WriteCompInt(Comp, Ord(StagePestSeriesMethod));
  WriteCompInt(Comp, Ord(BedTopPestSeriesMethod));
  WriteCompInt(Comp, Ord(BedBottomPestSeriesMethod));
  WriteCompInt(Comp, Ord(FlowPestSeriesMethod));
  WriteCompInt(Comp, Ord(WidthPestSeriesMethod));
  WriteCompInt(Comp, Ord(SlopePestSeriesMethod));
  WriteCompInt(Comp, Ord(RoughnessPestSeriesMethod));
end;

procedure TStrRecord.RecordStrings(Strings: TStringList);
begin
  Strings.Add(ConductanceAnnotation);
  Strings.Add(StageAnnotation);
  Strings.Add(BedTopAnnotation);
  Strings.Add(BedBottomAnnotation);
  Strings.Add(FlowAnnotation);
  Strings.Add(WidthAnnotation);
  Strings.Add(SlopeAnnotation);
  Strings.Add(RoughnessAnnotation);

  Strings.Add(ConductancePest);
  Strings.Add(StagePest);
  Strings.Add(BedTopPest);
  Strings.Add(BedBottomPest);
  Strings.Add(FlowPest);
  Strings.Add(WidthPest);
  Strings.Add(SlopePest);
  Strings.Add(RoughnessPest);

  Strings.Add(ConductancePestSeriesName);
  Strings.Add(StagePestSeriesName);
  Strings.Add(BedTopPestSeriesName);
  Strings.Add(BedBottomPestSeriesName);
  Strings.Add(FlowPestSeriesName);
  Strings.Add(WidthPestSeriesName);
  Strings.Add(SlopePestSeriesName);
  Strings.Add(RoughnessPestSeriesName);

end;

procedure TStrRecord.Restore(Decomp: TDecompressionStream;
  Annotations: TStringList);
begin
  Cell := ReadCompCell(Decomp);
  Conductance := ReadCompReal(Decomp);
  Stage := ReadCompReal(Decomp);
  BedTop := ReadCompReal(Decomp);
  BedBottom := ReadCompReal(Decomp);
  Flow := ReadCompReal(Decomp);
  Width := ReadCompReal(Decomp);
  Slope := ReadCompReal(Decomp);
  Roughness := ReadCompReal(Decomp);
  StartingTime := ReadCompReal(Decomp);
  EndingTime := ReadCompReal(Decomp);
  SegmentNumber := ReadCompInt(Decomp);
  ReachNumber := ReadCompInt(Decomp);
  ConductanceAnnotation := Annotations[ReadCompInt(Decomp)];
  StageAnnotation := Annotations[ReadCompInt(Decomp)];
  BedTopAnnotation := Annotations[ReadCompInt(Decomp)];
  BedBottomAnnotation := Annotations[ReadCompInt(Decomp)];
  FlowAnnotation := Annotations[ReadCompInt(Decomp)];
  WidthAnnotation := Annotations[ReadCompInt(Decomp)];
  SlopeAnnotation := Annotations[ReadCompInt(Decomp)];
  RoughnessAnnotation := Annotations[ReadCompInt(Decomp)];

  ConductancePest := Annotations[ReadCompInt(Decomp)];
  StagePest := Annotations[ReadCompInt(Decomp)];
  BedTopPest := Annotations[ReadCompInt(Decomp)];
  BedBottomPest := Annotations[ReadCompInt(Decomp)];
  FlowPest := Annotations[ReadCompInt(Decomp)];
  WidthPest := Annotations[ReadCompInt(Decomp)];
  SlopePest := Annotations[ReadCompInt(Decomp)];
  RoughnessPest := Annotations[ReadCompInt(Decomp)];

  ConductancePestSeriesName := Annotations[ReadCompInt(Decomp)];
  StagePestSeriesName := Annotations[ReadCompInt(Decomp)];
  BedTopPestSeriesName := Annotations[ReadCompInt(Decomp)];
  BedBottomPestSeriesName := Annotations[ReadCompInt(Decomp)];