unit ModflowGhbUnit;

interface

uses Windows, ZLib, SysUtils, Classes, Contnrs, ModflowBoundaryUnit,
  OrderedCollectionUnit, ModflowCellUnit,
  FormulaManagerUnit, FormulaManagerInterfaceUnit,
  SubscriptionUnit, RbwParser, GoPhastTypes,
  ModflowTransientListParameterUnit, Modflow6DynamicTimeSeriesInterfaceUnit,
  System.Math;

type
  TGhbRecord = record
    Cell: TCellLocation;
    Conductance: double;
    BoundaryHead: double;
    StartingTime: double;
    EndingTime: double;
    ConductanceAnnotation: string;
    BoundaryHeadAnnotation: string;
//    TimeSeriesName: string;
    MvrUsed: Boolean;
    MvrIndex: Integer;
    ConductanceParameterName: string;
    ConductanceParameterValue: double;
    // PEST
    ConductancePest: string;
    BoundaryHeadPest: string;
    ConductancePestSeriesName: string;
    BoundaryHeadPestSeriesName: string;
    ConductancePestSeriesMethod: TPestParamMethod;
    BoundaryHeadPestSeriesMethod: TPestParamMethod;
    // MODFLOW 6 TimeSeries
    ConductanceTimeSeriesName: string;
    BoundaryHeadTimeSeriesName: string;
    // GWT Concentrations
    GwtConcentrations: TGwtCellData;
    procedure Assign(const Item: TGhbRecord);
    procedure Cache(Comp: TCompressionStream; Strings: TStringList);
    procedure Restore(Decomp: TDecompressionStream; Annotations: TStringList);
    procedure RecordStrings(Strings: TStringList);
  end;

  TGhbArray = array of TGhbRecord;

  TGhbStorage = class(TCustomBoundaryStorage)
  private
    FGhbArray: TGhbArray;
    function GetGhbArray: TGhbArray;
  protected
    procedure Restore(DecompressionStream: TDecompressionStream; Annotations: TStringList); override;
    procedure Store(Compressor: TCompressionStream); override;
    procedure Clear; override;
  public
    property GhbArray: TGhbArray read GetGhbArray;
  end;

  TGhbCollection = class;

  TGhbGwtConcCollection = class(TGwtConcStringCollection)
    constructor Create(Model: TBaseModel; AScreenObject: TObject;
      ParentCollection: TGhbCollection);
  end;

  // @name represents a MODFLOW General Head boundary for one time interval.
  // @name is stored by @link(TGhbCollection).
  TGhbItem = class(TCustomModflowBoundaryItem)
  private
    // See @link(BoundaryHead).
    FBoundaryHead: IFormulaObject;
    // See @link(Conductance).
    FConductance: IFormulaObject;
    FGwtConcentrations: TGhbGwtConcCollection;
    // See @link(BoundaryHead).
    procedure SetBoundaryHead(const Value: string);
    // See @link(Conductance).
    procedure SetConductance(const Value: string);
    function GetBoundaryHead: string;
    function GetConductance: string;
    procedure SetGwtConcentrations(const Value: TGhbGwtConcCollection);
  protected
    procedure AssignObserverEvents(Collection: TCollection); override;
    procedure CreateFormulaObjects; override;
    procedure GetPropertyObserver(Sender: TObject; List: TList); override;
    procedure RemoveFormulaObjects; override;
    // See @link(BoundaryFormula).
    function GetBoundaryFormula(Index: integer): string; override;
    // See @link(BoundaryFormula).
    procedure SetBoundaryFormula(Index: integer; const Value: string); override;
    // @name checks whether AnotherItem is the same as the current @classname.
    function IsSame(AnotherItem: TOrderedItem): boolean; override;
    procedure InvalidateModel; override;
    function BoundaryFormulaCount: integer; override;
    function GetConductanceIndex: Integer; override;
  public
    // @name copies Source to this @classname.
    procedure Assign(Source: TPersistent);override;
    constructor Create(Collection: TCollection); override;
    Destructor Destroy; override;
  published
    // @name is the formula used to set the boundary head
    // of this boundary.
    property BoundaryHead: string read GetBoundaryHead write SetBoundaryHead;
    // @name is the formula used to set the conductance
    // or the conductance multiplier of this boundary.
    property Conductance: string read GetConductance write SetConductance;
    property GwtConcentrations: TGhbGwtConcCollection read FGwtConcentrations
      write SetGwtConcentrations;
  end;

  TGhbTimeListLink = class(TTimeListsModelLink)
  private
    // @name is used to compute the Boundary Heads for a series of
    // General Head Boundaries over a series of time intervals.
    FBoundaryHeadData: TModflowTimeList;
    // @name is used to compute the Conductances for a series of
    // General Head Boundaries over a series of time intervals.
    FConductanceData: TModflowTimeList;
    FConcList: TModflowTimeLists;
    procedure AddGwtTimeLists(SpeciesIndex: Integer);
    procedure RemoveGwtTimeLists(SpeciesIndex: Integer);
  protected
    procedure UpdateGwtTimeLists; override;
    procedure CreateTimeLists; override;
  public
    Destructor Destroy; override;
  end;

  // @name represents MODFLOW General Head boundaries
  // for a series of time intervals.
  TGhbCollection = class(TCustomMF_ListBoundColl)
  private
    procedure InvalidateHeadData(Sender: TObject);
    procedure InvalidateConductanceData(Sender: TObject);
    procedure InvalidateGwtConcentrations(Sender: TObject);
  protected
    class function GetTimeListLinkClass: TTimeListsModelLinkClass; override;
    procedure AssignListCellLocation(BoundaryStorage: TCustomBoundaryStorage;
      ACellList: TObject); override;
    { TODO -cRefactor : Consider replacing Model with an interface. }
    //
    procedure AssignCellList(CellAssignmentData: TCellAssignmentData); override;
    function AdjustedFormula(FormulaIndex, ItemIndex: integer): string;
      override;
    { TODO -cRefactor : Consider replacing Model with an interface. }
    //
    procedure AddSpecificBoundary(AModel: TBaseModel); override;
    procedure TestIfObservationsPresent(var EndOfLastStressPeriod: Double;
      var StartOfFirstStressPeriod: Double;
      var ObservationsPresent: Boolean); override;

    // See @link(TCustomNonSpatialBoundColl.ItemClass
    // TCustomNonSpatialBoundColl.ItemClass)
    class function ItemClass: TBoundaryItemClass; override;
    { TODO -cRefactor : Consider replacing Model with an interface. }
    // @name calls inherited @name and then sets the length of
    // the @link(TGhbStorage.GhbArray) at ItemIndex in
    // @link(TCustomMF_BoundColl.Boundaries) to BoundaryCount.
    // @SeeAlso(TCustomMF_BoundColl.SetBoundaryStartAndEndTime
    // TCustomMF_BoundColl.SetBoundaryStartAndEndTime)
    procedure SetBoundaryStartAndEndTime(BoundaryCount: Integer;
      Item: TCustomModflowBoundaryItem; ItemIndex: Integer; AModel: TBaseModel); override;
    procedure InvalidateModel; override;
  end;

  // Each @name stores a @link(TGhbCollection).
  // @classname is stored by @link(TModflowParameters).
  TGhbParamItem = class(TModflowParamItem)
  protected
    class function BoundaryClass: TMF_BoundCollClass; override;
  end;

  TGhb_Cell = class(TValueCell)
  private
    FValues: TGhbRecord;
    FStressPeriod: integer;
    function GetBoundaryHead: double;
    function GetConductance: double;
    function GetBoundaryHeadAnnotation: string;
    function GetConductanceAnnotation: string;
    function GetMvrUsed: Boolean;
    function GetMvrIndex: Integer;
    function GetConductanceParameterName: string;
    function GetConductanceParameterValue: double;
    function GetBoundaryHeadPest: string;
    function GetBoundaryHeadPestSeries: string;
    function GetBoundaryHeadPestSeriesMethod: TPestParamMethod;
    function GetConductancePest: string;
    function GetConductancePestSeries: string;
    function GetConductancePestSeriesMethod: TPestParamMethod;
    function GetBoundaryHeadTimeSeriesName: string;
    function GetConductanceTimeSeriesName: string;
    procedure SetBoundaryHeadTimeSeriesName(const Value: string);
    procedure SetConductanceTimeSeriesName(const Value: string);
    function GetConcentration(const Index: Integer): double;
    function GetConcentrationAnnotation(const Index: Integer): string;
    function GetConcentrationPestName(const Index: Integer): string;
    function GetConcentrationPestSeriesMethod(
      const Index: Integer): TPestParamMethod;
    function GetConcentrationPestSeriesName(const Index: Integer): string;
    function GetConcentrationTimeSeriesName(const Index: Integer): string;
  protected
    function GetColumn: integer; override;
    function GetLayer: integer; override;
    function GetRow: integer; override;
    procedure SetColumn(const Value: integer); override;
    procedure SetLayer(const Value: integer); override;
    procedure SetRow(const Value: integer); override;
    { TODO -cRefactor : Consider replacing Model with an interface. }
    //
    function GetIntegerValue(Index: integer; AModel: TBaseModel): integer; override;
    { TODO -cRefactor : Consider replacing Model with an interface. }
    //
    function GetRealValue(Index: integer; AModel: TBaseModel): double; override;
    { TODO -cRefactor : Consider replacing Model with an interface. }
    //
    function GetRealAnnotation(Index: integer; AModel: TBaseModel): string; override;
    { TODO -cRefactor : Consider replacing Model with an interface. }
    //
    function GetIntegerAnnotation(Index: integer; AModel: TBaseModel): string; override;
    procedure Cache(Comp: TCompressionStream; Strings: TStringList); override;
    procedure Restore(Decomp: TDecompressionStream; Annotations: TStringList); override;
    function GetSection: integer; override;
    procedure RecordStrings(Strings: TStringList); override;
    function GetPestName(Index: Integer): string; override;
    function GetPestSeriesMethod(Index: Integer): TPestParamMethod; override;
    function GetPestSeriesName(Index: Integer): string; override;
    function GetMf6TimeSeriesName(Index: Integer): string; override;
    procedure SetMf6TimeSeriesName(Index: Integer; const Value: string); override;
  public
    property Conductance: double read GetConductance;
    property BoundaryHead: double read GetBoundaryHead;
    property ConductanceAnnotation: string read GetConductanceAnnotation;
    property BoundaryHeadAnnotation: string read GetBoundaryHeadAnnotation;
    property MvrUsed: Boolean read GetMvrUsed;
    property MvrIndex: Integer read GetMvrIndex;
    function IsIdentical(AnotherCell: TValueCell): boolean; override;
    property ConductanceParameterName: string read GetConductanceParameterName;
    property ConductanceParameterValue: double read GetConductanceParameterValue;
    // PEST parameters
    property BoundaryHeadPest: string read GetBoundaryHeadPest;
    property ConductancePest: string read GetConductancePest;
    property BoundaryHeadPestSeries: string read GetBoundaryHeadPestSeries;
    property ConductancePestSeries: string read GetConductancePestSeries;
    property BoundaryHeadPestSeriesMethod: TPestParamMethod
      read GetBoundaryHeadPestSeriesMethod;
    property ConductancePestSeriesMethod: TPestParamMethod
      read GetConductancePestSeriesMethod;
    property ConductanceTimeSeriesName: string read GetConductanceTimeSeriesName
      write SetConductanceTimeSeriesName;
    property BoundaryHeadTimeSeriesName: string
      read GetBoundaryHeadTimeSeriesName write SetBoundaryHeadTimeSeriesName;
    // GWT
    property Concentrations[const Index: Integer]: double
      read GetConcentration;
    property ConcentrationAnnotations[const Index: Integer]: string
      read GetConcentrationAnnotation;
    property ConcentrationPestNames[const Index: Integer]: string
      read GetConcentrationPestName;
    property ConcentrationPestSeriesNames[const Index: Integer]: string
      read GetConcentrationPestSeriesName;
    property ConcentrationPestSeriesMethods[const Index: Integer]: TPestParamMethod
      read GetConcentrationPestSeriesMethod;
    property ConcentrationTimeSeriesNames[const Index: Integer]: string
      read GetConcentrationTimeSeriesName;
  end;

  // @name represents the MODFLOW General-Head boundaries associated with
  // a single @link(TScreenObject).
  //
  // FormulaInterpretation determines whether the @Link(TGhbItem.Conductance
  // TGhbItem.Conductance) formulas represent
  // @unorderedlist(
  //   @item(fiSpecific - Conductance / the length or area of
  //     intersection between the @link(TScreenObject) and grid cell.)
  //   @item(fiTotal - Conductance.)
  // )
  // @seealso(TGhbCollection)
  TGhbBoundary = class(TSpecificModflowBoundary)
  private
    FPestConductanceMethod: TPestParamMethod;
    FPestConductanceFormula: IFormulaObject;
    FPestHeadMethod: TPestParamMethod;
    FPestHeadFormula: IFormulaObject;
    FUsedObserver: TObserver;
    FPestConductanceObserver: TObserver;
    FPestHeadObserver: TObserver;
    FPestConcentrationFormulas: TGhbGwtConcCollection;
    FPestConcentrationMethods: TGwtPestMethodCollection;
    FConcentrationObservers: TObserverList;
    procedure TestIfObservationsPresent(var EndOfLastStressPeriod: Double;
      var StartOfFirstStressPeriod: Double;
      var ObservationsPresent: Boolean);
    function GetPestConductanceFormula: string;
    function GetPestConductanceObserver: TObserver;
    function GetPestHeadFormula: string;
    function GetPestHeadObserver: TObserver;
    procedure SetPestConductanceFormula(const Value: string);
    procedure SetPestConductanceMethod(const Value: TPestParamMethod);
    procedure SetPestHeadFormula(const Value: string);
    procedure SetPestHeadMethod(const Value: TPestParamMethod);
    procedure InvalidateConductanceData(Sender: TObject);
    procedure InvalidateHeadData(Sender: TObject);
    procedure InvalidateConcData(Sender: TObject);
    procedure SetPestConcentrationFormulas(const Value: TGhbGwtConcCollection);
    procedure SetPestConcentrationMethods(const Value: TGwtPestMethodCollection);
    function GetConcentrationObserver(const Index: Integer): TObserver;
//    function GetPConcentrationFormulas(const Index: Integer): string;
//    procedure SetPConcentrationFormulas(const Index: Integer;
//      const Value: string);
//    procedure SetInterp(const Value: TMf6InterpolationMethods);
  protected
    { TODO -cRefactor : Consider replacing Model with an interface. }
    // @name fills ValueTimeList with a series of TObjectLists - one for
    // each stress period.  Each such TObjectList is filled with
    // @link(TGhb_Cell)s for that stress period.
    procedure AssignCells(BoundaryStorage: TCustomBoundaryStorage;
      ValueTimeList: TList; AModel: TBaseModel); override;
    // See @link(TModflowBoundary.BoundaryCollectionClass
    // TModflowBoundary.BoundaryCollectionClass).
    class function BoundaryCollectionClass: TMF_BoundCollClass; override;
    // See @link(TModflowParamBoundary.ModflowParamItemClass
    // TModflowParamBoundary.ModflowParamItemClass).
    class function ModflowParamItemClass: TModflowParamItemClass; override;
    function ParameterType: TParameterType; override;

    procedure HandleChangedValue(Observer: TObserver); //override;
    function GetUsedObserver: TObserver; //override;
    procedure GetPropertyObserver(Sender: TObject; List: TList); override;
    procedure CreateFormulaObjects; //override;
    function BoundaryObserverPrefix: string; override;
    procedure CreateObservers; //override;
    property PestHeadObserver: TObserver read GetPestHeadObserver;
    property ConcentrationObserver[const Index: Integer]: TObserver
      read GetConcentrationObserver;
    property PestConductanceObserver: TObserver read GetPestConductanceObserver;
    function GetPestBoundaryFormula(FormulaIndex: integer): string; override;
    procedure SetPestBoundaryFormula(FormulaIndex: integer;
      const Value: string); override;
    function GetPestBoundaryMethod(FormulaIndex: integer): TPestParamMethod; override;
    procedure SetPestBoundaryMethod(FormulaIndex: integer;
      const Value: TPestParamMethod); override;
  public
    Constructor Create(Model: TBaseModel; ScreenObject: TObject);
    destructor Destroy; override;
    procedure Assign(Source: TPersistent);override;
    { TODO -cRefactor : Consider replacing Model with an interface. }
    // @name fills ValueTimeList via a call to AssignCells for each
    // link  @link(TGhbStorage) in
    // @link(TCustomMF_BoundColl.Boundaries Values.Boundaries);
    // Those represent non-parameter boundary conditions.
    // @name fills ParamList with the names of the
    // MODFLOW GHB parameters that are in use.
    // The Objects property of ParamList has TObjectLists
    // Each such TObjectList is filled via a call to AssignCells
    // with each @link(TGhbStorage) in @link(TCustomMF_BoundColl.Boundaries
    // Param.Param.Boundaries)
    // Those represent parameter boundary conditions.
    procedure GetCellValues(ValueTimeList: TList; ParamList: TStringList;
      AModel: TBaseModel; Writer: TObject); override;
    procedure InvalidateDisplay; override;
    class function DefaultBoundaryMethod(
      FormulaIndex: integer): TPestParamMethod; override;
//    property PConcentrationFormulas[const Index: Integer]: string
//      read GetPConcentrationFormulas write SetPConcentrationFormulas;
  published
    property Interp;
    property PestHeadFormula: string read GetPestHeadFormula
      write SetPestHeadFormula;
    property PestConductanceFormula: string read GetPestConductanceFormula
      write SetPestConductanceFormula;
    property PestHeadMethod: TPestParamMethod read FPestHeadMethod
      write SetPestHeadMethod;
    property PestConductanceMethod: TPestParamMethod
      read FPestConductanceMethod write SetPestConductanceMethod;
    property PestConcentrationFormulas: TGhbGwtConcCollection
      read FPestConcentrationFormulas write SetPestConcentrationFormulas;
    property PestConcentrationMethods: TGwtPestMethodCollection
      read FPestConcentrationMethods write SetPestConcentrationMethods;
  end;

const
  GhbHeadPosition = 0;
  GhbConductancePosition = 1;
  GhbStartConcentration = 2;

resourcestring
  StrBoundaryHeadSetTo = 'GHB Boundary head set to zero because of a math error';
  StrConductanceSetToZ = 'GHB Conductance set to zero because of a math error';
  StrConcentrationSetTo = 'GHB Concentration set to zero because of a math error';

implementation

uses PhastModelUnit, ScreenObjectUnit, ModflowTimeUnit,
  frmGoPhastUnit, GIS_Functions, ModflowMvrUnit,
  frmErrorsAndWarningsUnit, CellLocationUnit;

resourcestring
  StrConductance = 'Conductance';
  StrConductanceMultipl = ' conductance multiplier';

{ TGhbItem }

procedure TGhbItem.Assign(Source: TPersistent);
var
  Ghb: TGhbItem;
begin
  // if Assign is updated, update IsSame too.
  if Source is TGhbItem then
  begin
    Ghb := TGhbItem(Source);
    BoundaryHead := Ghb.BoundaryHead;
    Conductance := Ghb.Conductance;
    GwtConcentrations := Ghb.GwtConcentrations;
  end;
  inherited;
end;

procedure TGhbItem.AssignObserverEvents(Collection: TCollection);
var
  ParentCollection: TGhbCollection;
  HeadObserver: TObserver;
  ConductanceObserver: TObserver;
  ConcIndex: Integer;
begin
  ParentCollection := Collection as TGhbCollection;
  HeadObserver := FObserverList[GhbHeadPosition];
  HeadObserver.OnUpToDateSet := ParentCollection.InvalidateHeadData;
  ConductanceObserver := FObserverList[GhbConductancePosition];
  ConductanceObserver.OnUpToDateSet := ParentCollection.InvalidateConductanceData;

  for ConcIndex := 0 to GwtConcentrations.Count - 1 do
  begin
    GwtConcentrations[ConcIndex].Observer.OnUpToDateSet
      := ParentCollection.InvalidateGwtConcentrations; 
  end;
end;

function TGhbItem.BoundaryFormulaCount: integer;
begin
  result := 2;
  if GwtConcentrations <> nil then
  begin
    if (Model <> nil) and Model.GwtUsed then
    begin
      GwtConcentrations.Count := (Model as TCustomModel).MobileComponents.Count;
    end;
    if frmGoPhast.PhastModel.GwtUsed then
    begin
      result := result + GwtConcentrations.Count;
    end;
  end;
end;

constructor TGhbItem.Create(Collection: TCollection);
var
  GhbCol: TGhbCollection;
begin
  GhbCol := Collection as TGhbCollection;
  FGwtConcentrations := TGhbGwtConcCollection.Create(Model as TCustomModel, ScreenObject,
    GhbCol);
  inherited;
end;

procedure TGhbItem.CreateFormulaObjects;
begin
  FBoundaryHead := CreateFormulaObject(dso3D);
  FConductance := CreateFormulaObject(dso3D);
end;

destructor TGhbItem.Destroy;
var
  Index: Integer;
begin
  BoundaryHead := '0';
  Conductance := '0';

  for Index := 0 to FGwtConcentrations.Count - 1 do
  begin
    FGwtConcentrations[Index].Value := '0';
  end;
  FGwtConcentrations.Free;
  inherited;
end;

function TGhbItem.GetBoundaryFormula(Index: integer): string;
var
  Item: TGwtConcStringValueItem;
begin
  case Index of
    GhbHeadPosition: result := BoundaryHead;
    GhbConductancePosition: result := Conductance;
    else
      begin
        Dec(Index, 2);
        while GwtConcentrations.Count <= Index do
        begin
          GwtConcentrations.Add;
        end;
        Item := GwtConcentrations[Index];
        result := Item.Value;
      end;
  end;
end;

function TGhbItem.GetBoundaryHead: string;
begin
  FBoundaryHead.ScreenObject := ScreenObjectI;
  try
    Result := FBoundaryHead.Formula;
  finally
    FBoundaryHead.ScreenObject := nil;
  end;
  ResetItemObserver(GhbHeadPosition);
end;

function TGhbItem.GetConductance: string;
begin
  FConductance.ScreenObject := ScreenObjectI;
  try
    Result := FConductance.Formula;
  finally
    FConductance.ScreenObject := ScreenObjectI;
  end;
  ResetItemObserver(GhbConductancePosition);
end;

function TGhbItem.GetConductanceIndex: Integer;
begin
  Result := GhbConductancePosition;
end;

procedure TGhbItem.GetPropertyObserver(Sender: TObject; List: TList);
var
  Item: TGwtConcStringValueItem;
  ConcIndex: Integer;
begin
  if Sender = FConductance as TObject then
  begin
    List.Add(FObserverList[GhbConductancePosition]);
  end;
  if Sender = FBoundaryHead as TObject then
  begin
    List.Add(FObserverList[GhbHeadPosition]);
  end;
  for ConcIndex := 0 to GwtConcentrations.Count - 1 do
  begin
    Item := GwtConcentrations.Items[ConcIndex];
    if Item.ValueObject as TObject = Sender then
    begin
      List.Add(Item.Observer);
    end;
  end;
end;

procedure TGhbItem.InvalidateModel;
var
  PhastModel: TPhastModel;
begin
  inherited;
  PhastModel := Model as TPhastModel;
  if (PhastModel <> nil)
    and not (csDestroying in PhastModel.ComponentState)
    and not PhastModel.Clearing then
  begin
    PhastModel.InvalidateMfGhbConductance(self);
    PhastModel.InvalidateMfGhbBoundaryHead(self);
    PhastModel.InvalidateMfGhbConc(self);
  end;
end;

function TGhbItem.IsSame(AnotherItem: TOrderedItem): boolean;
var
  Item: TGhbItem;
begin
  result := (AnotherItem is TGhbItem) and inherited IsSame(AnotherItem);
  if result then
  begin
    Item := TGhbItem(AnotherItem);
    result := (Item.BoundaryHead = BoundaryHead)
      and (Item.Conductance = Conductance)
      and (Item.GwtConcentrations.IsSame(GwtConcentrations));
  end;
end;

procedure TGhbItem.RemoveFormulaObjects;
begin
  frmGoPhast.PhastModel.FormulaManager.Remove(FConductance,
    GlobalRemoveModflowBoundaryItemSubscription, GlobalRestoreModflowBoundaryItemSubscription, self);
  frmGoPhast.PhastModel.FormulaManager.Remove(FBoundaryHead,
    GlobalRemoveModflowBoundaryItemSubscription, GlobalRestoreModflowBoundaryItemSubscription, self);
end;

procedure TGhbItem.SetBoundaryFormula(Index: integer; const Value: string);
var
  Item: TGwtConcStringValueItem;
begin
  inherited;
  case Index of
    GhbHeadPosition: BoundaryHead := Value;
    GhbConductancePosition: Conductance := Value;
    else
      begin
        Dec(Index, 2);
        while Index >= GwtConcentrations.Count do
        begin
          GwtConcentrations.Add;
        end;
        Item := GwtConcentrations[Index];
        Item.Value := Value;
      end;
  end;
end;

procedure TGhbItem.SetBoundaryHead(const Value: string);
begin
  UpdateFormulaBlocks(Value, GhbHeadPosition, FBoundaryHead);
end;

procedure TGhbItem.SetConductance(const Value: string);
begin
  UpdateFormulaBlocks(Value, GhbConductancePosition, FConductance);
end;

procedure TGhbItem.SetGwtConcentrations(const Value: TGhbGwtConcCollection);
begin
  FGwtConcentrations.Assign(Value);
end;

{ TGhbCollection }

class function TGhbCollection.GetTimeListLinkClass: TTimeListsModelLinkClass;
begin
  result := TGhbTimeListLink;
end;

procedure TGhbCollection.TestIfObservationsPresent(
  var EndOfLastStressPeriod: Double; var StartOfFirstStressPeriod: Double;
  var ObservationsPresent: Boolean);
var
  Boundary: TGhbBoundary;
begin
  // If observations exist, the list of cells must
  // be identical in every stress period.
  // To do that, introduce dummy values in BoundaryValues
  // for times that are not defined explicitly.
  // Set their conductances to zero so they have no effect
  // on the model.
  Boundary := BoundaryGroup as TGhbBoundary;
  Boundary.TestIfObservationsPresent(EndOfLastStressPeriod,
    StartOfFirstStressPeriod, ObservationsPresent);
end;

procedure TGhbCollection.AddSpecificBoundary(AModel: TBaseModel);
begin
  AddBoundary(TGhbStorage.Create(AModel));
end;

function TGhbCollection.AdjustedFormula(FormulaIndex,
  ItemIndex: integer): string;
var
  Boundary: TGhbBoundary;
  ScreenObject: TScreenObject;
  Item: TGhbItem;
begin
  Item := Items[ItemIndex] as TGhbItem;
  if FormulaIndex = GhbConductancePosition then
  begin
    Boundary := BoundaryGroup as TGhbBoundary;
    ScreenObject := Boundary.ScreenObject as TScreenObject;
    case Boundary.FormulaInterpretation of
      fiSpecific:
        begin
          if ScreenObject.ScreenObjectLength = 0 then
          begin
            result := Item.Conductance;
          end
          else if ScreenObject.Closed then
          begin
            result := '(' + Item.Conductance
              + ') * ' + StrObjectIntersectArea;
          end
          else
          begin
            result := '(' + Item.Conductance
              + ') * ' + StrObjectSectionIntersectLength;
          end;
        end;
      fiDirect:
        begin
          result := Item.Conductance;
        end;
      fiTotal:
        begin
          if ScreenObject.ScreenObjectLength = 0 then
          begin
            result := Item.Conductance;
          end
          else if ScreenObject.Closed then
          begin
            result := '((' + Item.Conductance
              + ') * ' + StrObjectIntersectArea + ') / ' + StrObjectArea;
          end
          else
          begin
            result := '((' + Item.Conductance
              + ') * ' + StrObjectSectionIntersectLength+ ') / ' + StrObjectLength;
          end;
        end;
      else Assert(False);
    end;
  end
  else
  begin
    result := Item.BoundaryFormula[FormulaIndex];
  end;
end;

procedure TGhbCollection.AssignCellList(CellAssignmentData: TCellAssignmentData);
var
  GhbStorage: TGhbStorage;
  CellList: TCellAssignmentList;
  Index: Integer;
  ACell: TCellAssignment;
  ConcIndex: Integer;
  AllowedIndicies: Set of Byte;
  SpeciesIndex: Byte;
  LocalModel: TCustomModel;
  ErrorMessage: string;
  LocalScreenObject: TScreenObject;
  Expression: TExpression;
  ACellList: TObject;
  BoundaryStorage: TCustomBoundaryStorage;
  BoundaryFunctionIndex: integer;
  Variables, DataSets: TList;
  AModel: TBaseModel;
  AScreenObject: TObject;
  PestName: string;
  PestSeriesName: string;
  PestSeriesMethod: TPestParamMethod;
  TimeSeriesName: string;
  DynamicTimeSeries: IDynamicTimeSeries;
begin
  Expression := CellAssignmentData.Expression;
  ACellList := CellAssignmentData.ACellList;
  BoundaryStorage := CellAssignmentData.BoundaryStorage;
  BoundaryFunctionIndex := CellAssignmentData.BoundaryFunctionIndex;
  Variables := CellAssignmentData.Variables;
  DataSets := CellAssignmentData.DataSets;
  AModel := CellAssignmentData.AModel;
  AScreenObject := CellAssignmentData.AScreenObject;
  PestName := CellAssignmentData.PestName;
  PestSeriesName := CellAssignmentData.PestSeriesName;
  PestSeriesMethod := CellAssignmentData.PestSeriesMethod;
  TimeSeriesName := CellAssignmentData.TimeSeriesName;
  DynamicTimeSeries := CellAssignmentData.DynamicTimeSeries;

  BoundaryGroup.Mf6TimeSeriesNames.Add(TimeSeriesName);

  AllowedIndicies := [GhbHeadPosition,GhbConductancePosition];
  LocalModel := AModel as TCustomModel;
  if LocalModel.GwtUsed then
  begin
    for SpeciesIndex := 0 to LocalModel.MobileComponents.Count - 1 do
    begin
      Include(AllowedIndicies, GhbStartConcentration + SpeciesIndex);
    end;
  end;

  Assert(BoundaryFunctionIndex in AllowedIndicies);
  Assert(Expression <> nil);

  GhbStorage := BoundaryStorage as TGhbStorage;
  CellList := ACellList as TCellAssignmentList;
  for Index := 0 to CellList.Count - 1 do
  begin
    ACell := CellList[Index];
    UpdateCurrentScreenObject(AScreenObject as TScreenObject);
    UpdateRequiredListData(DataSets, Variables, ACell, AModel);

    AssignDynamicTimeSeries(TimeSeriesName, DynamicTimeSeries, ACell);

    try
      Expression.Evaluate;
      with GhbStorage.GhbArray[Index] do
      begin
        case BoundaryFunctionIndex of
          GhbHeadPosition:
            begin
              BoundaryHead := Expression.DoubleResult;
              BoundaryHeadAnnotation := ACell.Annotation;
              BoundaryHeadPest := PestName;
              BoundaryHeadPestSeriesName := PestSeriesName;
              BoundaryHeadPestSeriesMethod := PestSeriesMethod;
              BoundaryHeadTimeSeriesName := TimeSeriesName;
            end;
          GhbConductancePosition:
            begin
              Conductance := Expression.DoubleResult;
              ConductanceAnnotation := ACell.Annotation;
              ConductancePest := PestName;
              ConductancePestSeriesName := PestSeriesName;
              ConductancePestSeriesMethod := PestSeriesMethod;
              ConductanceTimeSeriesName := TimeSeriesName;
            end;
          else
            begin