unit ModpathResponseFileWriterUnit;

interface

uses SysUtils, PhastModelUnit, ModflowPackageSelectionUnit, CustomModflowWriterUnit,
  DataSetUnit, ScreenObjectUnit, ModflowGridUnit, GoPhastTypes;

type
  // MODPATH version 5
  TModpathResponseFileWriter = class(TCustomModflowWriter)
  private
    FOptions: TModpathSelection;
    FNewBudgetFile: Boolean;
    FArchive: Boolean;
    function GetCBF_Option(const AFileName: string): TCompositeBudgetFileOption;
    function CompositeBudgetFileSize: Int64;
    function RespondToLargeBudgetFile(
      CBF_Option: TCompositeBudgetFileOption): string;
    procedure WriteResponse;
    procedure WriteRspFile(NameOfFile: string; const AFileName: string);
  protected
    class function Extension: string; override;
  public
    FLargeBudgetFileResponse: string;
    Constructor Create(Model: TCustomModel; EvaluationType: TEvaluationType); override;
    procedure WriteFile(const AFileName: string; NewBudgetFile: boolean);
  end;

  // MODPATH version 6
  TModpathSimFileWriter = class(TCustomModflowWriter)
  private
    FOptions: TModpathSelection;
    FNameFile: string;
    FTimePointOption: Integer;
    FModelName: string;
    FMpathVersion: TMpathVersion;
    FScreenObjects: TScreenObjectList;
    FCellList: TCellAssignmentList;
    FParticleID: Integer;
    FModflowGrid: TModflowGrid;
    FCellNumbers: TThreeDIntegerArray;
    procedure ArchiveOutputFileName(var AFileName: string);
    // Comments.
    procedure WriteDataSet0;
    // ModpathNameFile
    procedure WriteDataSet1(IsArchive: Boolean);
    // ModpathListingFile
    procedure WriteDataSet2(Archive: Boolean);
    {SimulationType TrackingDirection WeakSinkOption WeakSourceOption ,
    ReferenceTimeOption StopOption ParticleGenerationOption TimePointOption
    BudgetOutputOption ZoneArrayOption RetardationOption
    AdvectiveObservationsOption}
    procedure WriteDataSet3;
    // EndpointFile
    procedure WriteDataSet4(Archive: Boolean);
    // [PathlineFile] — only if SimulationType = 2
    procedure WriteDataSet5(Archive: Boolean);
    // [TimeseriesFile] — only if SimulationType = 3
    procedure WriteDataSet6(Archive: Boolean);
    // [AdvectiveObservationsFile] — only if AdvectiveObservationsOption = 2
    // and SimulationType = 3
    procedure WriteDataSet7(Archive: Boolean);
    procedure WriteCheckBudget;
    procedure WriteReferenceTimeOption;
    // [ReferenceTime] — only if ReferenceTimeOption = 1
    procedure WriteReferenceTime;
    procedure WriteStopTimeOption;
    // [StopTime] — only if StopOption = 3
    procedure WriteStopTime;
    // [StartingLocationsFile] — only if ParticleGenerationOption = 2
    procedure WriteDataSet22;
    procedure WriteTimePointOptionMp7;
    procedure WriteTimeCountAndIntervalMp7;
    procedure WriteTimeCountMp7;
    procedure WriteTimesMp7;
    procedure WriteZoneDataOptionMp7;
    // [TimePointCount] — only if TimePointOption = 2 or TimePointOption = 3
    procedure WriteDataSet23;
    // [ReleaseTimeIncrement] — only if TimePointOption =2
    procedure WriteDataSet24;
    // [TimePoints(TimePointCount)] — only if TimePointOption = 3
    procedure WriteDataSet25;
    {Item 26 [CellBudgetCount] – only if BudgetOutputOption = 3
    Item 27 [Grid Layer Row Column] – only if BudgetOutputOption = 3.
    Repeat item 27 CellBudgetCount times.}
    procedure WriteDataSets26and27;
    // [TraceFile] – only if BudgetOutputOption = 4
    procedure WriteTraceFileName(Archive: Boolean);
    // [TraceID] – only if BudgetOutputOption = 4
    procedure WriteTraceID;
    // [StopZone]
    procedure WriteStopZone;
    // [Zone(NCOL,NROW)] –U2DINT
    procedure WriteZones;
    procedure WriteRetardationFactorOptionMp7;

    procedure WriteDataSet(const DataSetName: string; DataArray: TDataArray);
    {Item 32 [RetardationFactor(NCOL,NROW)] –U2DREL
    Item 33 [RetardationFactorCB(NCOL,NROW)] –U2DREL – only if LAYCBD in the MODFLOW Discretization File is not equal to 0}
    procedure WriteRetardation;
    procedure WriteParticleGroupCount;
    procedure WriteParticleGroupName(AScreenObject: TScreenObject);
    procedure WriteReleaseTimes(AScreenObject: TScreenObject);
    procedure WriteStartingLocationFileOption;
    procedure WriteStartingLocations(AScreenObject: TScreenObject);

    procedure SaveFile(NameOfFile: string; IsArchive: Boolean);
    procedure SaveFileMp7(NameOfFile: string; IsArchive: Boolean);
    procedure FillScreenObjectList;
    procedure GetParticleCount(AScreenObject: TScreenObject; var ParticleCount: Integer);
    procedure GetCellCount(AScreenObject: TScreenObject; var CellCount: Integer);

    procedure SpecifyCellNumberArray;
  protected
    function PackageID_Comment(APackage: TModflowPackageSelection): string; override;
  public
    class function Extension: string; override;
    Constructor Create(Model: TCustomModel; EvaluationType: TEvaluationType); override;
    destructor Destroy; override;
    procedure WriteFile(const AFileName: string);
  end;

implementation

uses
  LayerStructureUnit, ModpathStartingLocationsWriter,
  ModpathParticleUnit, frmProgressUnit, Forms, frmGoPhastUnit,
  frmErrorsAndWarningsUnit, ModflowTimeUnit, ArchiveNodeInterface, System.Generics.Collections, FastGEO,
  DataSetNamesUnit;

resourcestring
  StrWritingDataSets32and33 = '  Writing Data Sets 32 and 33.';
  StrThereIsAnIllegal = 'There is an illegal value (less than or equal to ze' +
  'ro) in %s';
  StrInSAllValuesSh = 'In %s, all values should be greater than or equal to ' +
  '1';
  StrLayerRowColumn = 'Layer, Row, Column = (%0:d, %1:d, %2:d)';
  StrBecauseThe0sStr = 'Because the %0:s stress period is not steady-state, ' +
  'the particles will end at the %1:s of the model simulation. See the docum' +
  'entation for StopOption in the MODPATH documentation.';
  StrLast = 'last';
  StrEnd = 'end';
  StrFirst = 'first';
  StrBeginning = 'beginning';
  StrTheMODPATHStopOpti = 'The MODPATH StopOption may not work as expected.';
  StrInvalidMODPATHStop = 'Invalid MODPATH StopZone number';
  StrInMODPATHVersion5 = 'In MODPATH version 5, the zone number in which to ' +
  'stop particles must be greater than 1. Edit this in the MODFLOW Packages ' +
  'and Programs dialog box.';
  StrInvalidMODPATHPart = 'Invalid MODPATH particle release time';
  StrTheLastForward = 'The last particle release time is after the end of th' +
  'e simulation. Edit this in the MODFLOW Packages and Programs dialog box.';
  StrTheLastBackward = 'The last particle release time is before the beginni' +
  'ng of the simulation. Edit this in the MODFLOW Packages and Programs dial' +
  'og box.';
  StrInvalidSimulationT = 'Invalid simulation type';
  StrACombinedPathline = 'A combined pathline and timeseries version is not ' +
  'allowed in this version of MODPATH. Try version 7.';
  StrInvalidMODPATHPartMethod = 'Invalid MODPATH particle specification method';
  StrWhenDISVGridsAre = 'When DISV grids are used, the object position can n' +
  'ot be used to specify the MODPATH particle position.';
  StrInTheFollowingObj = 'In the following objects, the MODPATH particles ar' +
  'e specified to be at the object location. However, the object(s) either d' +
  'on''t have a single elevation formula or don''t consist only of points. B' +
  'ecause of this the particles will be placed at cell centers.';

const
  KDefaultParticleGroupName = 'Default ';

{ TModpathResponseFileWriter }

constructor TModpathResponseFileWriter.Create(Model: TCustomModel; EvaluationType: TEvaluationType);
begin
 inherited Create(Model, EvaluationType);
 FArrayWritingFormat := awfModflow;
 FOptions := Model.ModflowPackages.ModPath;
end;

class function TModpathResponseFileWriter.Extension: string;
begin
  result := '.mprsp';
end;

function TModpathResponseFileWriter.GetCBF_Option(
  const AFileName: string): TCompositeBudgetFileOption;
var
  CompositeBudgetFileName: string;
  BudgetFileName: string;
  CompositeDate: TDateTime;
  BudgetDate: TDateTime;
begin

  if FNewBudgetFile or FArchive then
  begin
    result := cbfGenerateNew;
    Exit;
  end;
  CompositeBudgetFileName := ChangeFileExt(AFileName, '.cbf');
  BudgetFileName := ChangeFileExt(AFileName, StrCbcExt);
  if FileExists(CompositeBudgetFileName) and FileExists(BudgetFileName) then
  begin
    if FileAge(CompositeBudgetFileName, CompositeDate)
      and FileAge(BudgetFileName, BudgetDate) then
    begin
      if (CompositeDate > BudgetDate) then
      begin
        result := cbfUseOldFile;
      end
      else
      begin
        result := cbfGenerateNew;
      end;
    end
    else
    begin
      result := cbfGenerateNew;
    end;
  end
  else
  begin
    result := cbfGenerateNew;
  end;
end;

function TModpathResponseFileWriter.CompositeBudgetFileSize: Int64;
var
  NSTEPS: Int64;
  Grid: TModflowGrid;
  NROW: Int64;
  NLAY: Int64;
  NHLAY: Int64;
  GroupIndex: integer;
  Group: TLayerGroup;
  NRPTS: Int64;
  NREC: Int64;
  NCOL: Int64;

begin
  // based on the subroutine  CBFSIZ in the MODPATH source code.
  NSTEPS := Model.ModflowFullStressPeriods.NumberOfSteps;
  Grid := Model.ModflowGrid;
  NROW := Grid.RowCount;
  NCOL := Grid.ColumnCount;
  NLAY := Model.ModflowLayerCount;
  NHLAY := 0;
  for GroupIndex := 1 to Model.LayerStructure.Count - 1 do
  begin
    Group := Model.LayerStructure.LayerGroups[GroupIndex];
    if Group.RunTimeSimulated then
    begin
      if Group.AquiferType > 0 then
      begin
        NHLAY := NHLAY + Group.LayerCount;
      end;
    end;
  end;

  NRPTS := (6*NROW*NLAY) + (NROW*NHLAY) + NROW + NLAY;
  NREC := (1 + (1+NRPTS)*NSTEPS);
  result := 4*(NCOL+1)*NREC;
end;

procedure TModpathResponseFileWriter.WriteResponse;
begin
    WriteString('@RESPONSE:');
    NewLine;
end;

procedure TModpathResponseFileWriter.WriteFile(const AFileName: string;
  NewBudgetFile: boolean);
var
  NameOfFile: string;
begin
  frmErrorsAndWarnings.RemoveErrorGroup(Model, StrInvalidMODPATHStop);
  frmErrorsAndWarnings.RemoveErrorGroup(Model, StrInvalidMODPATHPart);
  frmErrorsAndWarnings.RemoveErrorGroup(Model, StrInvalidMODPATHPartMethod);


  FLargeBudgetFileResponse := '';
  FNewBudgetFile := NewBudgetFile;

  FArchive := False;
  NameOfFile := FileName(AFileName);
  WriteRspFile(NameOfFile, AFileName);

  FArchive := True;
  NameOfFile := NameOfFile + ArchiveExt;
  WriteRspFile(NameOfFile, AFileName);

  Model.AddModpathInputFile(NameOfFile);

end;

procedure TModpathResponseFileWriter.WriteRspFile(NameOfFile: string;
  const AFileName: string);
var
  CBF_Option: TCompositeBudgetFileOption;
  LastReleaseTime: Double;
  ReferenceTime: Real;
  ComputeLocations: Boolean;
  Index: Integer;
begin
  FInputFileName := NameOfFile;
  OpenFile(NameOfFile);
  try
    // interactive input
    WriteString('@[MODPATH 5.0]');
    NewLine;
    for Index := 0 to FOptions.Comments.Count - 1 do
    begin
      WriteString('@ ' + FOptions.Comments[Index]);
      NewLine;
    end;
    // MODPATH name file
    // 'ENTER THE NAME FILE:';
    WriteString('* ENTER THE NAME FILE:');
    NewLine;
    WriteResponse;
    WriteString(ExtractFileName(AFileName));
    NewLine;
    ReferenceTime := 0;
    CBF_Option := GetCBF_Option(AFileName);
    if not Model.ModflowStressPeriods.TransientModel then
    begin
      // 'DO YOU WANT TO STOP COMPUTING PATHS AFTER A SPECIFIED LENGTH OF TIME ?';
      WriteString('* DO YOU WANT TO STOP COMPUTING PATHS AFTER A SPECIFIED LENGTH OF TIME ?');
      NewLine;
      WriteResponse;
      if FOptions.StopAfterMaxTime then
      begin
        WriteString('Y');
      end
      else
      begin
        WriteString('N');
      end;
      NewLine;
      if FOptions.StopAfterMaxTime then
      begin
        // 'ENTER: MAXIMUM TRACKING TIME & TIME UNITS CONVERSION FACTOR';
        WriteString('* ENTER: MAXIMUM TRACKING TIME & TIME UNITS CONVERSION FACTOR');
        NewLine;
        WriteResponse;
        WriteFloat(FOptions.MaxTime);
        WriteFloat(1);
        NewLine;
      end;
    end
    else
    begin
      WriteString('* DEFINE A REFERENCE TIME FOR RELEASING PARTICLES ...');
      NewLine;
      WriteString('*   SELECT AN OPTION:');
      NewLine;
      WriteString('*      1 = SPECIFY BY ENTERING A STRESS PERIOD AND TIME STEP');
      NewLine;
      WriteString('*      2 = SPECIFY BY ENTERING A VALUE OF SIMULATION TIME');
      NewLine;
      //  'DEFINE A REFERENCE TIME FOR RELEASING PARTICLES ...';
      //  '  SELECT AN OPTION:';
      //  '     1 = SPECIFY BY ENTERING A STRESS PERIOD AND TIME STEP';
      //  '     2 = SPECIFY BY ENTERING A VALUE OF SIMULATION TIME';
      WriteResponse;
      WriteInteger(2);
      NewLine;
      //  '  ENTER: REFERENCE TIME  &  TIME UNITS CONVERSION FACTOR';
      // Offset the reference time by the beginning of the first stress period.
      WriteString('*   ENTER: REFERENCE TIME  &  TIME UNITS CONVERSION FACTOR');
      NewLine;
      case FOptions.TrackingDirection of
        tdForward:
          begin
            ReferenceTime := FOptions.ReferenceTime;
          end;
        tdBackward:
          begin
            ReferenceTime := FOptions.BackwardsTrackingReleaseTime;
          end;
      else
        //              - PhastModel.ModflowStressPeriods[0].StartTime;
        Assert(False);
      end;
      WriteResponse;
      WriteFloat(ReferenceTime);
      WriteInteger(1);
      NewLine;
      //  '  ENTER: STRESS PERIOD & TIME STEP ';
      //  '  ENTER: RELATIVE TIME WITHIN TIME STEP';
      //  '         (VALUE FROM 0 TO 1)';
      //  'STOP COMPUTING PATHS AT A SPECIFIED VALUE OF TRACKING TIME ?';
      WriteString('* STOP COMPUTING PATHS AT A SPECIFIED VALUE OF TRACKING TIME ?');
      NewLine;
      WriteResponse;
      if FOptions.StopAfterMaxTime then
      begin
        WriteString('Y');
      end
      else
      begin
        WriteString('N');
      end;
      NewLine;
      if FOptions.StopAfterMaxTime then
      begin
        //  'ENTER: MAXIMUM TRACKING TIME & TIME UNITS CONVERSION FACTOR'
        WriteString('*   ENTER: MAXIMUM TRACKING TIME & TIME UNITS CONVERSION FACTOR');
        NewLine;
        WriteResponse;
        WriteFloat(FOptions.MaxTime);
        WriteFloat(1);
        NewLine;
      end;
      //  'SPECIFY AN OPTION FOR READING HEAD AND FLOW RATE DATA:';
      //  '  1 = READ STANDARD MODFLOW UNFORMATTED FILES & GENERATE A';
      //  '      COMPOSITE BUDGET FILE';
      //  '  2 = READ FROM AN EXISTING COMPOSITE BUDGET FILE';
      WriteString('* SPECIFY AN OPTION FOR READING HEAD AND FLOW RATE DATA:');
      NewLine;
      WriteString('*   1 = READ STANDARD MODFLOW UNFORMATTED FILES & GENERATE A');
      NewLine;
      WriteString('*       COMPOSITE BUDGET FILE');
      NewLine;
      WriteString('*   2 = READ FROM AN EXISTING COMPOSITE BUDGET FILE');
      NewLine;
      // Create a new CBF file if the CBF file doesn't exist or if
      // is older the the budget file.
      WriteResponse;
      case CBF_Option of
        cbfGenerateNew:
          WriteInteger(1);
        cbfUseOldFile:
          WriteInteger(2);
      else
        Assert(False);
      end;
      NewLine;
    end;
    WriteString('* SELECT THE OUTPUT MODE:');
    NewLine;
    WriteString('*     1 = ENDPOINTS');
    NewLine;
    WriteString('*     2 = PATHLINE');
    NewLine;
    WriteString('*     3 = TIME SERIES');
    NewLine;
    //  'SELECT THE OUTPUT MODE:';
    //  '    1 = ENDPOINTS';
    //  '    2 = PATHLINE';
    //  '    3 = TIME SERIES';
    WriteResponse;
    case FOptions.OutputMode of
      mopEndpoints:
        WriteInteger(1);
      mopPathline:
        WriteInteger(2);
      mopTimeSeries:
        WriteInteger(3);
    else
      Assert(False);
    end;
    NewLine;
    if (FOptions.OutputMode in [mopPathline, mopTimeSeries]) then
    begin
      ComputeLocations := False;
      case FOptions.TimeSeriesMethod of
        tsmUniform:
          ComputeLocations := FOptions.TimeSeriesMaxCount > 0;
        tsmIndividual:
          ComputeLocations := FOptions.OutputTimes.Count > 0;
      else
        Assert(False);
      end;
      if FOptions.OutputMode = mopPathline then
      begin
        //  'DO YOU WANT TO COMPUTE LOCATIONS AT SPECIFIC POINTS IN TIME?';
        WriteString('* DO YOU WANT TO COMPUTE LOCATIONS AT SPECIFIC POINTS IN TIME?');
        NewLine;
        WriteResponse;
        if ComputeLocations then
        begin
          WriteString('Y');
        end
        else
        begin
          WriteString('N');
        end;
        NewLine;
      end;
      if ComputeLocations then
      begin
        //  'HOW SHOULD POINTS IN TIME BE SPECIFIED ?';
        //  '    1 = WITH A CONSTANT TIME INTERVAL';
        //  '    2 = VALUES OF TIME POINTS ARE READ FROM A FILE';
        WriteString('* HOW SHOULD POINTS IN TIME BE SPECIFIED ?');
        NewLine;
        WriteString('*     1 = WITH A CONSTANT TIME INTERVAL');
        NewLine;
        WriteString('*     2 = VALUES OF TIME POINTS ARE READ FROM A FILE');
        NewLine;
        WriteResponse;
        case FOptions.TimeSeriesMethod of
          tsmUniform:
            WriteInteger(1);
          tsmIndividual:
            WriteInteger(2);
        else
          Assert(False);
        end;
        NewLine;
      end;
      if ComputeLocations and (FOptions.TimeSeriesMethod = tsmUniform) then
      begin
        //  'ENTER: TIME INTERVAL & TIME UNITS CONVERSION FACTOR';
        WriteString('* ENTER: TIME INTERVAL & TIME UNITS CONVERSION FACTOR');
        NewLine;
        WriteResponse;
        WriteFloat(FOptions.TimeSeriesInterval);
        WriteFloat(1);
        NewLine;
        //  'ENTER THE MAXIMUM NUMBER OF TIME POINTS ALLOWED';
        WriteString('* ENTER THE MAXIMUM NUMBER OF TIME POINTS ALLOWED');
        NewLine;
        WriteResponse;
        WriteInteger(FOptions.TimeSeriesMaxCount);
        NewLine;
        LastReleaseTime := FOptions.TimeSeriesInterval * FOptions.TimeSeriesMaxCount;
        case FOptions.TrackingDirection of
          tdForward:
            begin
              if ReferenceTime + LastReleaseTime > Model.ModflowFullStressPeriods.Last.EndTime then
              begin
                frmErrorsAndWarnings.AddError(Model, StrInvalidMODPATHPart, StrTheLastForward);
              end;
            end;
          tdBackward:
            begin
              if ReferenceTime - LastReleaseTime < Model.ModflowFullStressPeriods.First.StartTime then
              begin
                frmErrorsAndWarnings.AddError(Model, StrInvalidMODPATHPart, StrTheLastBackward);
              end;
            end;
        else
          Assert(False);
        end;
      end;
    end;
    //  'HOW ARE STARTING LOCATIONS TO BE ENTERED?';
    //  '    1 = FROM AN EXISTING DATA FILE';
    //  '    2 = ARRAYS OF PARTICLES WILL BE GENERATED INTERNALLY';
    WriteString('* HOW ARE STARTING LOCATIONS TO BE ENTERED?');
    NewLine;
    WriteString('*     1 = FROM AN EXISTING DATA FILE');
    NewLine;
    WriteString('*     2 = ARRAYS OF PARTICLES WILL BE GENERATED INTERNALLY');
    NewLine;
    WriteResponse;
    WriteInteger(1);
    NewLine;
    //  'ENTER NAME OF DATA FILE CONTAINING STARTING LOCATIONS:';
    //  'DO YOU WANT TO STORE INTERNALLY-GENERATED STARTING LOCATIONS ON DISK ?';
    //  'ENTER A FILE NAME:';
    //  'IN WHICH DIRECTION SHOULD PARTICLES BE TRACKED?';
    //  '    1 = FORWARD IN THE DIRECTION OF FLOW';
    //  '    2 = BACKWARDS TOWARD RECHARGE LOCATIONS';
    WriteString('* IN WHICH DIRECTION SHOULD PARTICLES BE TRACKED?');
    NewLine;
    WriteString('*     1 = FORWARD IN THE DIRECTION OF FLOW');
    NewLine;
    WriteString('*     2 = BACKWARDS TOWARD RECHARGE LOCATIONS');
    NewLine;
    WriteResponse;
    case FOptions.TrackingDirection of
      tdForward:
        WriteInteger(1);
      tdBackward:
        WriteInteger(2);
    else
      Assert(False);
    end;
    NewLine;
    //  'HOW SHOULD PARTICLES BE TREATED WHEN THEY ENTER CELLS WITH INTERNAL SINKS ?';
    //  '    1 = PASS THROUGH WEAK SINK CELLS';
    //  '    2 = STOP AT WEAK SINK CELLS';
    //  '    3 = STOP AT WEAK SINK CELLS THAT EXCEED A SPECIFIED STRENGTH';
    WriteString('* HOW SHOULD PARTICLES BE TREATED WHEN THEY ENTER CELLS WITH INTERNAL SINKS ?');
    NewLine;
    WriteString('*     1 = PASS THROUGH WEAK SINK CELLS');
    NewLine;
    WriteString('*     2 = STOP AT WEAK SINK CELLS');
    NewLine;
    WriteString('*     3 = STOP AT WEAK SINK CELLS THAT EXCEED A SPECIFIED STRENGTH');
    NewLine;
    WriteResponse;
    case FOptions.WeakSink of
      wsPassThrough:
        WriteInteger(1);
      wsStop:
        WriteInteger(2);
      wsThreshold:
        WriteInteger(3);
    else
      Assert(False);
    end;
    NewLine;
    if FOptions.WeakSink = wsThreshold then
    begin
      //  'ENTER A NUMBER BETWEEN 0 AND 1:';
      //  '    (0.0 => NONE OF THE INFLOW TO THE CELL IS DISCHARGED TO INTERNAL SINKS)';
      //  '    (1.0 => ALL INFLOW TO THE CELL IS DISCHARGED TO INTERNAL SINKS)';
      WriteString('* ENTER A NUMBER BETWEEN 0 AND 1:');
      NewLine;
      WriteString('*     (0.0 => NONE OF THE INFLOW TO THE CELL IS DISCHARGED TO INTERNAL SINKS)');
      NewLine;
      WriteString('*     (1.0 => ALL INFLOW TO THE CELL IS DISCHARGED TO INTERNAL SINKS)');
      NewLine;
      WriteResponse;
      WriteFloat(FOptions.WeakSinkThreshold);
      NewLine;
    end;
    WriteString('* DO YOU WANT TO STOP PARTICLES WHENEVER THEY ENTER ONE SPECIFIC ZONE ?');
    NewLine;
    //  'DO YOU WANT TO STOP PARTICLES WHENEVER THEY ENTER ONE SPECIFIC ZONE ?';
    WriteResponse;
    if FOptions.StopInZone then
    begin
      WriteString('Y');
    end
    else
    begin
      WriteString('N');
    end;
    NewLine;
    if FOptions.StopInZone then
    begin
      //  'ENTER THE ZONE NUMBER (MUST BE > 1):';
      WriteString('* ENTER THE ZONE NUMBER (MUST BE > 1):');
      NewLine;
      WriteResponse;
      WriteInteger(FOptions.StopZoneNumber);
      if FOptions.StopZoneNumber <= 1 then
      begin
        frmErrorsAndWarnings.AddError(Model, StrInvalidMODPATHStop, StrInMODPATHVersion5);
      end;
      NewLine;
      if FOptions.OutputMode = mopEndpoints then
      begin
        //  'SPECIFY WHICH ENDPOINTS TO RECORD:';
        //  '   1 = ENDPOINT DATA RECORDED FOR ALL PARTICLES';
        //  '   2 = ENDPOINT DATA RECORDED ONLY FOR PARTICLES';
        //  '        TERMINATING IN ZONE ';
        WriteResponse;
        case FOptions.EndpointWrite of
          ewAll:
            WriteInteger(1);
          ewInStoppingZone:
            WriteInteger(2);
        else
          Assert(False);
        end;
        NewLine;
      end;
    end;
    FLargeBudgetFileResponse := RespondToLargeBudgetFile(CBF_Option);
    if FOptions.StopInZone then
    begin
      //  'DO YOU WANT TO CHANGE ANY OF THE ZONE CODES IN THE IBOUND ARRAY ?';
      WriteString('* DO YOU WANT TO CHANGE ANY OF THE ZONE CODES IN THE IBOUND ARRAY ?');
      NewLine;
      WriteResponse;
      WriteString('N');
      NewLine;
    end;
    //  'DO YOU WANT TO COMPUTE VOLUMETRIC BUDGETS FOR ALL CELLS ?';
    WriteString('* DO YOU WANT TO COMPUTE VOLUMETRIC BUDGETS FOR ALL CELLS ?');
    NewLine;
    WriteResponse;
    if FOptions.ComputeBudgetInAllCells then
    begin
      WriteString('Y');
    end
    else
    begin
      WriteString('N');
    end;
    NewLine;
    if FOptions.ComputeBudgetInAllCells then
    begin
      //  'SPECIFY AN ERROR TOLERANCE (IN PERCENT):';
      WriteString('* SPECIFY AN ERROR TOLERANCE (IN PERCENT):');
      NewLine;
      WriteResponse;
      WriteFloat(FOptions.ErrorTolerance);
      NewLine;
    end;
    //  ' DO YOU WANT TO CHECK DATA CELL BY CELL ?';
    WriteString('*  DO YOU WANT TO CHECK DATA CELL BY CELL ?');
    NewLine;
    WriteResponse;
    WriteString('N');
    NewLine;
    //  'SUMMARIZE FINAL STATUS OF PARTICLES IN SUMMARY.PTH FILE ?';
    WriteString('* SUMMARIZE FINAL STATUS OF PARTICLES IN SUMMARY.PTH FILE ?');
    NewLine;
    WriteResponse;
    if FOptions.Summarize then
    begin
      WriteString('Y');
    end
    else
    begin
      WriteString('N');
    end;
    NewLine;
  finally
    CloseFile;
  end;
end;

function TModpathResponseFileWriter.RespondToLargeBudgetFile(
  CBF_Option: TCompositeBudgetFileOption): string;
const
  MAXSIZ = 150000000;
var
  BigFile: Boolean;
  CBFileSize: Int64;
begin
  result := '';
  if CBF_Option = cbfGenerateNew then
  begin
    CBFileSize := CompositeBudgetFileSize;
    if FOptions.MaximumSize = 0 then
    begin
      BigFile := CBFileSize > MAXSIZ;
    end
    else
    begin
      BigFile := CBFileSize > FOptions.MaximumSize;
    end;
    if BigFile then
    begin
      //        WriteString('* THIS RUN WILL GENERATE A COMPOSITE BUDGET FILE THAT CONTAINS:');
      //        NewLine;
      //        KCBFileSize := CBFileSize / 1024;
      //        MCBFileSize := KCBFileSize/ 1024;
      //        if KCBFileSize < 500 then
      //        begin
      //          WriteString('* ' + IntToStr(CBFileSize) + ' BYTES ('
      //            + FloatToStr(KCBFileSize) + ' KB)');
      //          NewLine;
      //        end
      //        else
      //        begin
      //          WriteString('* ' + IntToStr(CBFileSize) + ' BYTES ('
      //            + FloatToStr(MCBFileSize) + ' MB)');
      //          NewLine;
      //        end;
      //        WriteString('*  YOU CAN CONTINUE OR STOP NOW.');
      //        NewLine;
      //        WriteString('*  SELECT AN OPTION:');
      //        NewLine;
      //        WriteString('*       1 = CONTINUE');
      //        NewLine;
      //        WriteString('*       2 = STOP NOW, DO NOT GENERATE THE FILE');
      //        NewLine;
      //        WriteResponse;
      if FOptions.MakeBigBudgetFile then
      begin
        result := '1';
      end
      else
      begin
        result := '2';
      end;
    end;
  end;
end;

{ TModpathSimFileWriter }

procedure TModpathSimFileWriter.ArchiveOutputFileName(var AFileName: string);
begin
  AFileName := '..\..\output\output.' + FModelName + '_Modpath\' + AFileName;
end;

constructor TModpathSimFileWriter.Create(Model: TCustomModel;
  EvaluationType: TEvaluationType);
begin
  inherited Create(Model, EvaluationType);
  FArrayWritingFormat := awfModflow;
  FOptions := Model.ModflowPackages.ModPath;
  FMpathVersion := FOptions.MpathVersion;
  FScreenObjects := TScreenObjectList.Create;
  FCellList := TCellAssignmentList.Create;
end;

destructor TModpathSimFileWriter.Destroy;
begin
  FCellList.Free;
  FScreenObjects.Free;
  inherited;
end;

class function TModpathSimFileWriter.Extension: string;
begin
  result := '.mpsim';
end;

procedure TModpathSimFileWriter.FillScreenObjectList;
var
  Index: Integer;
  ScreenObject: TScreenObject;
begin
  for Index := 0 to Model.ScreenObjectCount - 1 do
  begin
    ScreenObject := Model.ScreenObjects[Index];
    if (not ScreenObject.Deleted) and ScreenObject.ModpathParticles.Used then
    begin
      FScreenObjects.Add(ScreenObject);
    end;
  end;
end;

function TModpathSimFileWriter.PackageID_Comment(
  APackage: TModflowPackageSelection): string;
begin
  result := File_Comment(APackage.PackageIdentifier + ' Simulation file');
end;

procedure TModpathSimFileWriter.WriteZoneDataOptionMp7;
var
  ZoneDataOption: Integer;
begin
  ZoneDataOption := Ord(FOptions.StopInZone) + 1;
  WriteInteger(ZoneDataOption);
  WriteString(' # Item 20: ZoneDataOption');
  NewLine;
end;

procedure TModpathSimFileWriter.WriteCheckBudget;
var
  BudgetDataArray: TDataArray;
  CellBudgetCount: Integer;
  LayerIndex: Integer;
  RowIndex: Integer;
  ColIndex: Integer;
  IDomainDataArray: TDataArray;
  CellList: TGenericIntegerList;
  CellID: Integer;
  CellIndex: Integer;
begin
   // See WriteDataSets26and27

  BudgetDataArray := Model.DataArrayManager.GetDataSetByName(KModpathBudget);
  BudgetDataArray.Initialize;
  if Model.ModelSelection = msModflow2015 then
  begin
    IDomainDataArray := Model.DataArrayManager.GetDataSetByName(K_IDOMAIN);
    IDomainDataArray.Initialize;
  end
  else
  begin
    IDomainDataArray := nil;
  end;

//  CellBudgetCount := 0;
  CellList := TGenericIntegerList.Create;
  CellID := 0;
  try
    for LayerIndex := 0 to BudgetDataArray.LayerCount - 1 do
    begin
      if Model.IsLayerSimulated(LayerIndex) then
      begin
        for RowIndex := 0 to BudgetDataArray.RowCount - 1 do
        begin
          for ColIndex := 0 to BudgetDataArray.ColumnCount - 1 do
          begin

            if (IDomainDataArray = nil) or (IDomainDataArray.
              IntegerData[LayerIndex, RowIndex, ColIndex] > 0) then
            begin
              Inc(CellID);
              if BudgetDataArray.BooleanData[LayerIndex,RowIndex,ColIndex] then
              begin
//                Inc(CellBudgetCount);
                CellList.Add(CellID);
              end;
            end;
          end;
        end;
      end;
    end;
    CellBudgetCount := CellList.Count;
    WriteInteger(CellBudgetCount);
    WriteString(' # Item 9: BudgetCellCount');
    NewLine;

    for CellIndex := 0 to CellList.Count - 1 do
    begin
      WriteInteger(CellList[CellIndex]);
      NewLine;
    end;
  finally
    CellList.Free;
  end;
end;

procedure TModpathSimFileWriter.WriteDataSet(const DataSetName: string;
  DataArray: TDataArray);
var
  LayerIndex: integer;
begin
  Assert(DataArray <> nil);
  for LayerIndex := 0 to Model.LayerCount - 1 do
  begin
    if Model.IsLayerSimulated(LayerIndex) then
    begin
      WriteArray(DataArray, LayerIndex, DataSetName + ' '
        + Model.ModflowLayerBottomDescription(LayerIndex), StrNoValueAssigned, DataSetName);
    end;
  end;
end;

procedure TModpathSimFileWriter.WriteDataSet0;
begin
  WriteCommentLine(PackageID_Comment(FOptions));
  WriteCommentLines(FOptions.Comments);
end;

procedure TModpathSimFileWriter.WriteDataSet1(IsArchive: Boolean);
begin
  frmProgressMM.AddMessage(StrWritingDataSet1);
  if IsArchive then
  begin
    Model.AddModpathInputFile(FNameFile + ArchiveExt);
  end;