unit Mt3dmsChemUnit;

interface

uses System.Types, Windows, ZLib, SysUtils, Classes, Contnrs, OrderedCollectionUnit,
  ModflowBoundaryUnit, DataSetUnit, ModflowCellUnit, FormulaManagerUnit,
  SubscriptionUnit, SparseDataSets, RbwParser, GoPhastTypes, IntListUnit,
  ModflowMnw2Unit;

const
  // Mass loading source
  ISSYTPE_Mass = 15;
  // constant-concentration cell
  ISSYTPE_ConstConc = -1;

  ISSTYPE_CHD = 1;
  ISSTYPE_WEL = 2;
  ISSTYPE_DRN = 3;
  ISSTYPE_RIV = 4;
  ISSTYPE_GHB = 5;
  ISSTYPE_RCH = 7;
  ISSTYPE_EVT = 8;
//  ISSTYPE_LKT = 18;
  ISSTYPE_STR = 21;
  ISSTYPE_RES = 22;
  ISSTYPE_FHB = 23;
  ISSTYPE_IBS = 24;
  ISSTYPE_TLK = 25;
  ISSTYPE_LAK = 26;
  ISSTYPE_MNW = 27;
  ISSTYPE_DRT = 28;
  ISSTYPE_ETS = 29;
  ISSTYPE_SFR = 30;

type
  {
    @longcode(
  TMt3dmsConcentrationRecord = record
    Cell: TCellLocation;
    Concentration: double;
    StartingTime: double;
    EndingTime: double;
    ConcentrationAnnotation: string;
  end;
    )
    @name stores, the location, time and concentration for
    an MT3DMS point source.
  }
  TMt3dmsConcentrationRecord = record
    Cell: TCellLocation;
    Concentration : array of double;
    StartingTime: double;
    EndingTime: double;
    ConcentrationAnnotation: array of string;
    procedure Cache(Comp: TCompressionStream; Strings: TStringList);
    procedure Restore(Decomp: TDecompressionStream; Annotations: TStringList);
    procedure RecordStrings(Strings: TStringList);
  end;

  // @name is an array of @link(TMt3dmsConcentrationRecord)s.
  TMt3dmsConcArray = array of TMt3dmsConcentrationRecord;

  // @name extends @link(TCustomBoundaryStorage) by adding the locations
  // and values of series of MT3DMS concentration point sources.
  TMt3dmsConcStorage = class(TCustomBoundaryStorage)
  private
    FMt3dmsConclArray: TMt3dmsConcArray;
    function GetMt3dmsConcArray: TMt3dmsConcArray;
  protected
    procedure Restore(DecompressionStream: TDecompressionStream;
      Annotations: TStringList); override;
    procedure Store(Compressor: TCompressionStream); override;
    procedure Clear; override;
  public
    property Mt3dmsConcArray: TMt3dmsConcArray read GetMt3dmsConcArray;
  end;

  TStringConcCollection = class;

  TStringConcValueItem = class(TFormulaOrderedItem)
  private
    FValue: TFormulaObject;
    FObserver: TObserver;
    FName: string;
    procedure SetValue(const Value: string);
    function StringCollection: TStringConcCollection;
    function GetValue: string;
    procedure RemoveSubscription(Sender: TObject; const AName: string);
    procedure RestoreSubscription(Sender: TObject; const AName: string);
  protected
    function IsSame(AnotherItem: TOrderedItem): boolean; override;
    function GetObserver(Index: Integer): TObserver; override;
    function GetScreenObject: TObject; override;
  public
    procedure Assign(Source: TPersistent); override;
    constructor Create(Collection: TCollection); override;
    destructor Destroy; override;
  published
    property Value: string read GetValue write SetValue;
    property Name: string read FName write FName;
  end;

  TStringConcValueItemClass = class of TStringConcValueItem;


  TStringConcCollection = class(TCustomObjectOrderedCollection)
  private
//    FScreenObject: TObject;
    FMt3dmsConcCollection: TCollection;
    function GetItem(Index: integer): TStringConcValueItem;
    procedure SetItem(Index: integer; const Value: TStringConcValueItem);
  public
    procedure Assign(Source: TPersistent); override;
    constructor Create(Model: TBaseModel; ScreenObject: TObject;
      Mt3dmsConcCollection: TCollection); overload;
    constructor Create(ItemClass: TStringConcValueItemClass; Model: TBaseModel;
      ScreenObject: TObject; Mt3dmsConcCollection: TCollection); overload;
    property Items[Index: integer]: TStringConcValueItem read GetItem
      write SetItem; default;
    function IndexOfFormulaObject(AFormulaObject: TFormulaObject): integer;
    function Add: TStringConcValueItem;
    procedure RenameItems(const OldSpeciesName, NewSpeciesName: string);
  end;

//  IMt3dConcCollection = interface ['{4B52C524-1429-4F62-935A-4B92F721E5AD}']
//    procedure InvalidateMt3dmsConcData(Sender: TObject);
//    function GetScreenObject: TObject;
//    property ScreenObject: TObject read GetScreenObject;
//  end;

  // @name represents an MT3DMS concentration point source for one time interval.
  // @name is stored by @link(TMt3dmsConcCollection).
  TCustomMt3dmsConcItem = class(TCustomModflowBoundaryItem)
  private
    // See @link(Mt3dmsConcRate).
    FStringConcCollection: TStringConcCollection;
    // See @link(Mt3dmsConcRate).
    procedure SetStringConcCollection(const Value: TStringConcCollection);
    function BoundaryFormulaName(Index: integer): string;
    procedure RenameItems(const OldSpeciesName, NewSpeciesName: string);
    procedure ChangeSpeciesItemPosition(OldIndex, NewIndex: integer);
    function GetCollection: TCustomMF_BoundColl;
  protected
    procedure CreateFormulaObjects; override;
    procedure GetPropertyObserver(Sender: TObject; List: TList); override;
    procedure RemoveFormulaObjects; override;
    // See @link(BoundaryFormula).
    function GetBoundaryFormula(Index: integer): string; override;
    // See @link(BoundaryFormula).
    procedure SetBoundaryFormula(Index: integer; const Value: string); override;
    // @name checks whether AnotherItem is the same as the current @classname.
    function IsSame(AnotherItem: TOrderedItem): boolean; override;
    function BoundaryFormulaCount: integer; override;
    property Collection: TCustomMF_BoundColl read GetCollection;
    function GetMt3dmsConc(Index: integer): string; virtual;
    procedure SetMt3dmsConc(Index: integer; const Value: string); virtual;
  public
    Destructor Destroy; override;
    property Mt3dmsConcRate[Index: integer]: string read GetMt3dmsConc
      write SetMt3dmsConc;
    procedure InsertNewSpecies(SpeciesIndex: integer; const Name: string);
    procedure DeleteSpecies(SpeciesIndex: integer);
  published
    // @name copies Source to this @classname.
    procedure Assign(Source: TPersistent);override;
    // @name is the formula used to set the concentration of this boundary.
    property StringConcCollection: TStringConcCollection
      read FStringConcCollection write SetStringConcCollection;
  end;

  // @name represents an MT3DMS concentration point source for one time interval.
  // @name is stored by @link(TMt3dmsConcCollection).
  TMt3dmsConcItem = class(TCustomMt3dmsConcItem)
  protected
    procedure AssignObserverEvents(Collection: TCollection); override;
    procedure InvalidateModel; override;
  end;


    // @name is used to compute the concentrations for a series of
    // MT3DMS point sources over a series of time intervals.
  TCustomMt3dmsConcTimeListLink = class(TTimeListsModelLink)
  private
    FListOfTimeLists: TList;
  protected
    property ListOfTimeLists: TList read FListOfTimeLists;
  public
    Constructor Create(AModel: TBaseModel;
      ABoundary: TCustomMF_BoundColl); override;
    Destructor Destroy; override;
    procedure UpdateTimeLists; override;
  end;

  TMt3dmsConcTimeListLink = class(TCustomMt3dmsConcTimeListLink)
  protected
    procedure CreateTimeLists; override;
  end;

  // @name represents the concentrations of MT3DMS point sources
  // for a series of time intervals.
  TCustomMt3dmsConcCollection = class(TCustomMF_ListBoundColl)
  private
    procedure InvalidateMt3dmsConcData(Sender: TObject);
  protected
    procedure ChangeSpeciesItemPosition(OldIndex, NewIndex: integer);
    procedure ChangeSpeciesTimeListPosition(OldIndex, NewIndex: integer);
    procedure RenameTimeList(const OldSpeciesName, NewSpeciesName: string);
    procedure RenameItems(const OldSpeciesName, NewSpeciesName: string);
    // @name is used in @link(RenameTimeList)
    function ConcName: string; virtual;
    function AdjustedFormula(FormulaIndex, ItemIndex: integer): string; override;
    procedure AddSpecificBoundary(AModel: TBaseModel); override;

    // @name calls inherited @name and then sets the length of
    // the @link(TMt3dmsConcStorage.FMt3dmsConclArray) at ItemIndex in
    // @link(TCustomMF_BoundColl.Boundaries) to BoundaryCount.
    // @SeeAlso(TCustomMF_BoundColl.SetBoundaryStartAndEndTime
    // TCustomMF_BoundColl.SetBoundaryStartAndEndTime)
    procedure SetBoundaryStartAndEndTime(BoundaryCount: Integer;
      Item: TCustomModflowBoundaryItem; ItemIndex: Integer;
        AModel: TBaseModel); override;
    procedure AssignListCellLocation(BoundaryStorage: TCustomBoundaryStorage;
      ACellList: TObject); override;
    procedure AssignCellList(Expression: TExpression; ACellList: TObject;
      BoundaryStorage: TCustomBoundaryStorage; BoundaryFunctionIndex: integer;
      Variables, DataSets: TList; AModel: TBaseModel; AScreenObject: TObject); override;
    procedure InsertNewSpecies(SpeciesIndex: integer; const Name: string);
    procedure DeleteSpecies(SpeciesIndex: integer);
    procedure CreateTimeLists;
  end;

  // @name represents the concentrations of MT3DMS point sources
  // for a series of time intervals.
  TCustomMt3dmsArrayConcCollection = class(TCustomMF_ArrayBoundColl)
  private
    procedure InvalidateMt3dmsConcData(Sender: TObject);
  protected
    function AdjustedFormula(FormulaIndex, ItemIndex: integer): string; override;
    procedure AssignListCellLocation(BoundaryStorage: TCustomBoundaryStorage;
      ACellList: TObject); override;
    procedure AssignCellList(Expression: TExpression; ACellList: TObject;
      BoundaryStorage: TCustomBoundaryStorage; BoundaryFunctionIndex: integer;
      Variables, DataSets: TList; AModel: TBaseModel; AScreenObject: TObject); override;
    // @name is used in @link(RenameTimeList)
    function ConcName: string; virtual;
    procedure AddSpecificBoundary(AModel: TBaseModel); override;

    // @name calls inherited @name and then sets the length of
    // the @link(TMt3dmsConcStorage.FMt3dmsConclArray) at ItemIndex in
    // @link(TCustomMF_BoundColl.Boundaries) to BoundaryCount.
    // @SeeAlso(TCustomMF_BoundColl.SetBoundaryStartAndEndTime
    // TCustomMF_BoundColl.SetBoundaryStartAndEndTime)
    procedure SetBoundaryStartAndEndTime(BoundaryCount: Integer;
      Item: TCustomModflowBoundaryItem; ItemIndex: Integer;
        AModel: TBaseModel); override;
    procedure InsertNewSpecies(SpeciesIndex: integer; const Name: string);
    procedure DeleteSpecies(SpeciesIndex: integer);
    procedure CreateTimeLists;
    procedure InitializeTimeLists(ListOfTimeLists: TList;
      AModel: TBaseModel); override;
    procedure AssignArrayCellValues(DataSets: TList; ItemIndex: Integer;
      AModel: TBaseModel); override;
    procedure RenameTimeList(const OldSpeciesName, NewSpeciesName: string);
    procedure RenameItems(const OldSpeciesName, NewSpeciesName: string);
    procedure ChangeSpeciesItemPosition(OldIndex, NewIndex: integer);
    procedure ChangeSpeciesTimeListPosition(OldIndex, NewIndex: integer);
  end;

  TMt3dmsConcCollection = class(TCustomMt3dmsConcCollection)
  protected
    // See @link(TCustomNonSpatialBoundColl.ItemClass
    // TCustomNonSpatialBoundColl.ItemClass)
    class function ItemClass: TBoundaryItemClass; override;
    procedure InvalidateModel; override;
    function GetTimeListLinkClass: TTimeListsModelLinkClass; override;
  end;

  // Each @name stores a @link(TMt3dmsConcCollection).
  // @classname is stored by @link(TModflowParameters).
  TMt3dmsConc_Cell = class(TValueCell)
  private
    FValues: TMt3dmsConcentrationRecord;
    FStressPeriod: integer;
    FBoundaryTypes: TIntegerList;
    FMnw2Layers: TIntegerList;
    function GetConcentration(Index: integer): double;
    function GeConcentrationAnnotation(Index: integer): string;
  protected
    function GetColumn: integer; override;
    function GetLayer: integer; override;
    function GetRow: integer; override;
    procedure SetColumn(const Value: integer); override;
    procedure SetLayer(const Value: integer); override;
    procedure SetRow(const Value: integer); override;
    function GetIntegerValue(Index: integer;
      AModel: TBaseModel): integer; override;
    function GetRealValue(Index: integer; AModel: TBaseModel): double; override;
    function GetRealAnnotation(Index: integer;
      AModel: TBaseModel): string; override;
    function GetIntegerAnnotation(Index: integer;
      AModel: TBaseModel): string; override;
    procedure Cache(Comp: TCompressionStream; Strings: TStringList); override;
    procedure Restore(Decomp: TDecompressionStream;
      Annotations: TStringList); override;
    function GetSection: integer; override;
    procedure RecordStrings(Strings: TStringList); override;
  public
    Constructor Create; override;
    destructor Destroy; override;
    property Concentration[Index: integer]: double read GetConcentration;
    property ConcentrationAnnotation[Index: integer]: string
      read GeConcentrationAnnotation;
    function IsIdentical(AnotherCell: TValueCell): boolean; override;
    property BoundaryTypes: TIntegerList read FBoundaryTypes;
    function PointSinkCount(ColumnCount, RowCount, LayerCount,
      ModflowLayerCount: integer; Model: TBaseModel): integer;
    // @name contains the model layers (starting with 1 as the top layer) that
    // have MNW2 cells defined by vertical screens.
    property Mnw2Layers: TIntegerList read FMnw2Layers;
    property Values: TMt3dmsConcentrationRecord read FValues write FValues;
    property StressPeriod: integer read FStressPeriod write FStressPeriod;
    procedure SetConcentrationLength(ALength: Integer);
  end;

  // @name represents the MT3DMS point source associated with
  // a single @link(TScreenObject).
  //
  // @seealso(TMt3dmsConcCollection)
  TCustomMt3dmsConcBoundary = class(TModflowBoundary)
  public
    procedure BoundaryAssignCells(AModel: TBaseModel; ValueTimeList: TList);
    procedure InsertNewSpecies(SpeciesIndex: integer; const Name: string); virtual;
    procedure RenameSpecies(const OldSpeciesName, NewSpeciesName: string); virtual;
    procedure ChangeSpeciesPosition(OldIndex, NewIndex: integer); virtual;
    procedure DeleteSpecies(SpeciesIndex: integer); virtual;
    procedure CreateTimeLists;
  end;

  TMt3dmsConcBoundary = class(TCustomMt3dmsConcBoundary)
  private
    FSpecifiedConcBoundary: boolean;
    FMassLoadingBoundary: boolean;
    procedure SetMassLoadingBoundary(const Value: boolean);
    procedure SetSpecifiedConcBoundary(const Value: boolean);
  protected
    // @name fills ValueTimeList with a series of TObjectLists - one for
    // each stress period.  Each such TObjectList is filled with
    // @link(TMt3dmsConc_Cell)s for that stress period.
    procedure AssignCells(BoundaryStorage: TCustomBoundaryStorage;
      ValueTimeList: TList; AModel: TBaseModel); override;
    // See @link(TModflowBoundary.BoundaryCollectionClass
    // TModflowBoundary.BoundaryCollectionClass).
    class function BoundaryCollectionClass: TMF_BoundCollClass; override;
  public
    procedure Assign(Source: TPersistent); override;
    // @name fills ValueTimeList via a call to AssignCells for each
    // link  @link(TMt3dmsConcStorage) in
    // @link(TCustomMF_BoundColl.Boundaries Values.Boundaries);
    procedure GetCellValues(ValueTimeList: TList; ParamList: TStringList;
      AModel: TBaseModel); override;
    procedure InvalidateDisplay; override;
  published
    property SpecifiedConcBoundary: boolean read FSpecifiedConcBoundary
      write SetSpecifiedConcBoundary;
    property MassLoadingBoundary: boolean read FMassLoadingBoundary
      write SetMassLoadingBoundary;
  end;

procedure Mt3dmsStringValueRemoveSubscription(Sender: TObject; Subject: TObject;
  const AName: string);

procedure Mt3dmsStringValueRestoreSubscription(Sender: TObject; Subject: TObject;
  const AName: string);


implementation

uses ScreenObjectUnit, ModflowTimeUnit, TempFiles,
  frmGoPhastUnit, GIS_Functions, Mt3dmsChemSpeciesUnit,
  ModflowPackageSelectionUnit, ModflowPackagesUnit, PhastModelUnit,
  AbstractGridUnit, Mt3dCtsSystemUnit;

resourcestring
  StrConcentration = ' concentration or mass-loading';
  StrConcentrationMulti = ' concentration or mass-loading multiplier';

procedure Mt3dmsStringValueRemoveSubscription(Sender: TObject; Subject: TObject;
  const AName: string);
begin
  (Subject as TStringConcValueItem).RemoveSubscription(Sender, AName);
end;

procedure Mt3dmsStringValueRestoreSubscription(Sender: TObject; Subject: TObject;
  const AName: string);
begin
  (Subject as TStringConcValueItem).RestoreSubscription(Sender, AName);
end;


  //const
//  ConcentrationPosition = 0;

{ TCustomMt3dmsConcItem }

procedure TCustomMt3dmsConcItem.Assign(Source: TPersistent);
var
  Index: integer;
begin
  // if Assign is updated, update IsSame too.
  if Source is TCustomMt3dmsConcItem then
  begin
    for Index := 0 to BoundaryFormulaCount - 1 do
    begin
      Mt3dmsConcRate[Index] := TCustomMt3dmsConcItem(Source).Mt3dmsConcRate[Index];
    end;
  end;
  inherited;
end;

procedure TMt3dmsConcItem.AssignObserverEvents(Collection: TCollection);
var
  ParentCollection: TCustomMt3dmsConcCollection;
  ConcentrationObserver: TObserver;
  Index: integer;
begin
  ParentCollection := Collection as TCustomMt3dmsConcCollection;
  for Index := 0 to BoundaryFormulaCount - 1 do
  begin
    ConcentrationObserver := FObserverList[Index];
    ConcentrationObserver.OnUpToDateSet :=
      ParentCollection.InvalidateMt3dmsConcData;
  end;
end;

function TCustomMt3dmsConcItem.BoundaryFormulaName(Index: integer): string;
var
  LocalModel: TCustomModel;
begin
  LocalModel := Collection.Model as TCustomModel;
  if LocalModel = nil then
  begin
    LocalModel := frmGoPhast.PhastModel;
  end;
  if Index < LocalModel.MobileComponents.Count then
  begin
    result := LocalModel.MobileComponents[Index].Name;
  end
  else
  begin
    Index := Index - LocalModel.MobileComponents.Count;
    result := LocalModel.ImmobileComponents[Index].Name;
  end;
end;

function TCustomMt3dmsConcItem.BoundaryFormulaCount: integer;
var
  LocalModel: TCustomModel;
begin
  LocalModel := Collection.Model as TCustomModel;
  if LocalModel = nil then
  begin
    LocalModel := frmGoPhast.PhastModel;
  end;
//  Mt3dBasic := LocalModel.ModflowPackages.Mt3dBasic;
  result := LocalModel.NumberOfMt3dChemComponents;
end;

procedure TCustomMt3dmsConcItem.ChangeSpeciesItemPosition(OldIndex,
  NewIndex: integer);
begin
  StringConcCollection[OldIndex].Index := NewIndex;
end;

procedure TCustomMt3dmsConcItem.CreateFormulaObjects;
var
  Index: integer;
  Item: TStringConcValueItem;
begin
  if FStringConcCollection = nil then
  begin
    FStringConcCollection := TStringConcCollection.Create(
      Model, ScreenObject, Collection);
  end;
  for Index := 0 to BoundaryFormulaCount - 1 do
  begin
    Item := FStringConcCollection.Add;
    Item.Name := BoundaryFormulaName(Index);
  end;
end;

procedure TCustomMt3dmsConcItem.DeleteSpecies(SpeciesIndex: integer);
var
  Observer: TObserver;
  LocalScreenObject: TScreenObject;
begin
  BoundaryFormula[SpeciesIndex] := '0';
  Observer := FObserverList[SpeciesIndex];
  LocalScreenObject := ScreenObject as TScreenObject;
  if (LocalScreenObject <> nil) and LocalScreenObject.CanInvalidateModel then
  begin
    LocalScreenObject.StopsTalkingTo(Observer);
  end;
  FObserverList.Delete(SpeciesIndex);
  StringConcCollection.Delete(SpeciesIndex);
end;

destructor TCustomMt3dmsConcItem.Destroy;
var
  Index: integer;
begin
  for Index := 0 to FStringConcCollection.Count - 1 do
  begin
    Mt3dmsConcRate[Index] := '0.';
  end;
  inherited;
  // RemoveFormulaObjects is called by inherited Destroy.
  // It accesses FStringConcCollection.
  FStringConcCollection.Free;
end;

function TCustomMt3dmsConcItem.GetBoundaryFormula(Index: integer): string;
begin
  result := Mt3dmsConcRate[Index]
end;

function TCustomMt3dmsConcItem.GetCollection: TCustomMF_BoundColl;
begin
  result := inherited Collection as TCustomMF_BoundColl;
end;

procedure TCustomMt3dmsConcItem.GetPropertyObserver(Sender: TObject; List: TList);
var
  Position: Integer;
begin
  Position := FStringConcCollection.IndexOfFormulaObject(
    Sender as TFormulaObject);

  Assert(Position >= 0);
  List.Add(FObserverList[Position]);
end;

function TCustomMt3dmsConcItem.GetMt3dmsConc(Index: integer): string;
var
  Item: TStringConcValueItem;
begin
  Item := FStringConcCollection[Index];
  result := Item.Value;
  ResetItemObserver(Index);
end;

procedure TCustomMt3dmsConcItem.InsertNewSpecies(SpeciesIndex: integer;
  const Name: string);
var
  Item: TStringConcValueItem;
  Observer: TObserver;
  LocalScreenObject: TScreenObject;
begin
  Item := StringConcCollection.Insert(SpeciesIndex) as TStringConcValueItem;
  Item.Name := Name;

  Observer := TObserver.Create(nil);
  FObserverList.Insert(SpeciesIndex, Observer);
  LocalScreenObject := ScreenObject as TScreenObject;
  if (LocalScreenObject <> nil) and LocalScreenObject.CanInvalidateModel then
  begin
    LocalScreenObject.TalksTo(Observer);
  end;
  BoundaryFormula[SpeciesIndex] := '0';

  AssignObserverEvents(Collection);
end;

procedure TMt3dmsConcItem.InvalidateModel;
var
  PhastModel: TPhastModel;
begin
  inherited;
  PhastModel := Model as TPhastModel;
  if (PhastModel <> nil)
    and not (csDestroying in PhastModel.ComponentState)
    and not PhastModel.Clearing then
  begin
    PhastModel.InvalidateMt3dmsChemSources(self);
  end;
end;

function TCustomMt3dmsConcItem.IsSame(AnotherItem: TOrderedItem): boolean;
var
  Item: TCustomMt3dmsConcItem;
  Index: integer;
begin
  result := (AnotherItem is TCustomMt3dmsConcItem) and inherited IsSame(AnotherItem);
  if result then
  begin
    Item := TCustomMt3dmsConcItem(AnotherItem);
    for Index := 0 to BoundaryFormulaCount - 1 do
    begin
      result := (Item.Mt3dmsConcRate[Index] = Mt3dmsConcRate[Index]);
      if not result then
      begin
        Exit;
      end;
    end;
  end;
end;

procedure TCustomMt3dmsConcItem.RemoveFormulaObjects;
begin
  FStringConcCollection.Clear;
end;

procedure TCustomMt3dmsConcItem.RenameItems(const OldSpeciesName,
  NewSpeciesName: string);
begin
  StringConcCollection.RenameItems(OldSpeciesName, NewSpeciesName);
end;

procedure TCustomMt3dmsConcItem.SetBoundaryFormula(Index: integer;
  const Value: string);
begin
  inherited;
  Mt3dmsConcRate[Index] := Value;
end;

procedure TCustomMt3dmsConcItem.SetMt3dmsConc(Index: integer; const Value: string);
var
  Item: TStringConcValueItem;
begin
  Item := FStringConcCollection[Index];
  Item.Value := Value;
end;

procedure TCustomMt3dmsConcItem.SetStringConcCollection(
  const Value: TStringConcCollection);
begin
  FStringConcCollection.Assign(Value);
end;

{ TMt3dmsConcCollection }

procedure TCustomMt3dmsConcCollection.AddSpecificBoundary(AModel: TBaseModel);
begin
  AddBoundary(TMt3dmsConcStorage.Create(AModel));
end;

procedure TCustomMt3dmsConcCollection.AssignCellList(Expression: TExpression;
  ACellList: TObject; BoundaryStorage: TCustomBoundaryStorage;
  BoundaryFunctionIndex: integer; Variables, DataSets: TList;
  AModel: TBaseModel; AScreenObject: TObject);
var
  ConcStorage: TMt3dmsConcStorage;
  CellList: TCellAssignmentList;
  Index: Integer;
  ACell: TCellAssignment;
begin
  Assert(Expression <> nil);

  ConcStorage := BoundaryStorage as TMt3dmsConcStorage;
  CellList := ACellList as TCellAssignmentList;
  for Index := 0 to CellList.Count - 1 do
  begin
    ACell := CellList[Index];
    UpdateCurrentScreenObject(AScreenObject as TScreenObject);
    UpdateRequiredListData(DataSets, Variables, ACell, AModel);
    // 2. update locations
    Expression.Evaluate;
    with ConcStorage.Mt3dmsConcArray[Index] do
    begin
      Concentration[BoundaryFunctionIndex] := Expression.DoubleResult;
      ConcentrationAnnotation[BoundaryFunctionIndex] := ACell.Annotation;
    end;
  end;
end;

procedure TCustomMt3dmsConcCollection.AssignListCellLocation(
  BoundaryStorage: TCustomBoundaryStorage; ACellList: TObject);
var
  ConcStorage: TMt3dmsConcStorage;
  CellList: TCellAssignmentList;
  Index: Integer;
  ACell: TCellAssignment;
begin
  ConcStorage := BoundaryStorage as TMt3dmsConcStorage;
  CellList := ACellList as TCellAssignmentList;
  for Index := 0 to CellList.Count - 1 do
  begin
    ACell := CellList[Index];
    with ConcStorage.Mt3dmsConcArray[Index] do
    begin
      Cell.Layer := ACell.Layer;
      Cell.Row := ACell.Row;
      Cell.Column := ACell.Column;
      Cell.Section := ACell.Section;
    end;
  end;
end;

procedure TCustomMt3dmsConcCollection.ChangeSpeciesItemPosition(OldIndex,
  NewIndex: integer);
var
  ItemIndex: integer;
  AnItem: TCustomMt3dmsConcItem;
begin
  for ItemIndex := 0 to Count - 1 do
  begin
    AnItem := Items[ItemIndex] as TCustomMt3dmsConcItem;
    AnItem.ChangeSpeciesItemPosition(OldIndex, NewIndex);
  end;
end;

procedure TCustomMt3dmsConcCollection.ChangeSpeciesTimeListPosition(OldIndex,
  NewIndex: integer);
var
  PhastModel: TPhastModel;
  ChildIndex: Integer;
  ChildModel: TChildModel;
  TimeList: TModflowTimeList;
  TimeLists: TList;
begin
  PhastModel := frmGoPhast.PhastModel;
  TimeLists := TimeListLink.GetLink(PhastModel).TimeLists;
  TimeList := TimeLists[OldIndex];
  TimeLists.Extract(TimeList);
  TimeLists.Insert(NewIndex, TimeList);
  for ChildIndex := 0 to PhastModel.ChildModels.Count - 1 do
  begin
    ChildModel := PhastModel.ChildModels[ChildIndex].ChildModel;
    TimeLists := TimeListLink.GetLink(ChildModel).TimeLists;
    TimeList := TimeLists[OldIndex];
    TimeLists.Extract(TimeList);
    TimeLists.Insert(NewIndex, TimeList);
  end;
end;

function TCustomMt3dmsConcCollection.ConcName: string;
begin
  result := StrConcentration;
end;

procedure TCustomMt3dmsConcCollection.CreateTimeLists;
var
  PhastModel: TPhastModel;
  Link: TCustomMt3dmsConcTimeListLink;
  ChildIndex: Integer;
  ChildModel: TChildModel;
begin
  PhastModel := frmGoPhast.PhastModel;
  Link := TimeListLink.GetLink(PhastModel) as TCustomMt3dmsConcTimeListLink;
  Link.CreateTimeLists;
  for ChildIndex := 0 to PhastModel.ChildModels.Count - 1 do
  begin
    ChildModel := PhastModel.ChildModels[ChildIndex].ChildModel;
    Link := TimeListLink.GetLink(ChildModel) as TCustomMt3dmsConcTimeListLink;
    Link.CreateTimeLists;
  end;
end;

procedure TCustomMt3dmsConcCollection.DeleteSpecies(SpeciesIndex: integer);
var
  Index: integer;
  Item: TCustomMt3dmsConcItem;
begin
  for Index := 0 to Count - 1 do
  begin
    Item := Items[index] as TCustomMt3dmsConcItem;
    Item.DeleteSpecies(SpeciesIndex);
  end;
end;

function TMt3dmsConcCollection.GetTimeListLinkClass: TTimeListsModelLinkClass;
begin
  result := TMt3dmsConcTimeListLink;
end;

function TCustomMt3dmsConcCollection.AdjustedFormula(FormulaIndex,
  ItemIndex: integer): string;
var
  Item: TCustomMt3dmsConcItem;
begin
  Item := Items[ItemIndex] as TCustomMt3dmsConcItem;
  result := Item.Mt3dmsConcRate[FormulaIndex];
end;


procedure TCustomMt3dmsConcCollection.InsertNewSpecies(SpeciesIndex: integer;
  const Name: string);
var
  Index: integer;
  Item: TCustomMt3dmsConcItem;
  PhastModel: TPhastModel;
  Link: TCustomMt3dmsConcTimeListLink;
  ChildIndex: Integer;
  ChildModel: TChildModel;
begin
  for Index := 0 to Count - 1 do
  begin
    Item := Items[index] as TCustomMt3dmsConcItem;
    Item.InsertNewSpecies(SpeciesIndex, Name);
  end;

  PhastModel := frmGoPhast.PhastModel;
  Link := TimeListLink.GetLink(PhastModel) as TCustomMt3dmsConcTimeListLink;
  Link.CreateTimeLists;
  for ChildIndex := 0 to PhastModel.ChildModels.Count - 1 do
  begin
    ChildModel := PhastModel.ChildModels[ChildIndex].ChildModel;
    Link := TimeListLink.GetLink(ChildModel) as TCustomMt3dmsConcTimeListLink;
    Link.CreateTimeLists;
  end;
end;

procedure TMt3dmsConcCollection.InvalidateModel;
var
  PhastModel: TPhastModel;
begin
  inherited;
  PhastModel := Model as TPhastModel;
  if (PhastModel <> nil)
    and not (csDestroying in PhastModel.ComponentState)
    and not PhastModel.Clearing then
  begin
    PhastModel.InvalidateMt3dmsChemSources(self);
  end;
end;

procedure TCustomMt3dmsConcCollection.InvalidateMt3dmsConcData(Sender: TObject);
var
  PhastModel: TPhastModel;
  Link: TCustomMt3dmsConcTimeListLink;
  ChildIndex: Integer;
  ChildModel: TChildModel;
  Index: Integer;
  TimeList: TModflowTimeList;
begin
  if not (Sender as TObserver).UpToDate then
  begin
    PhastModel := frmGoPhast.PhastModel;
    Link := TimeListLink.GetLink(PhastModel) as TCustomMt3dmsConcTimeListLink;
    for Index := 0 to Link.FListOfTimeLists.Count - 1 do
    begin
      TimeList := Link.FListOfTimeLists[Index];
      TimeList.Invalidate;
    end;
    for ChildIndex := 0 to PhastModel.ChildModels.Count - 1 do
    begin
      ChildModel := PhastModel.ChildModels[ChildIndex].ChildModel;
      Link := TimeListLink.GetLink(ChildModel) as TCustomMt3dmsConcTimeListLink;
      for Index := 0 to Link.FListOfTimeLists.Count - 1 do
      begin
        TimeList := Link.FListOfTimeLists[Index];
        TimeList.Invalidate;
      end;
    end;
  end;
end;

class function TMt3dmsConcCollection.ItemClass: TBoundaryItemClass;
begin
  result := TMt3dmsConcItem;
end;

procedure TCustomMt3dmsConcCollection.RenameItems(const OldSpeciesName,
  NewSpeciesName: string);
var
  ItemIndex: integer;
  AnItem: TCustomMt3dmsConcItem;
begin
  for ItemIndex := 0 to Count - 1 do
  begin
    AnItem := Items[ItemIndex] as TCustomMt3dmsConcItem;
    AnItem.RenameItems(OldSpeciesName, NewSpeciesName);
  end;
end;

procedure TCustomMt3dmsConcCollection.RenameTimeList(const OldSpeciesName,
  NewSpeciesName: string);
var
  PhastModel: TPhastModel;
  Link: TCustomMt3dmsConcTimeListLink;
  Index: Integer;
  ChildIndex: Integer;
  ChildModel: TChildModel;
  TimeList: TModflowTimeList;
  OldTimeListName: string;
  NewTimeListName: string;
begin
  if OldSpeciesName <> NewSpeciesName then
  begin
    OldTimeListName := OldSpeciesName + ConcName;