unit OrderedCollectionUnit;

interface

uses DataSetUnit, Classes, GoPhastTypes, SysUtils, SubscriptionUnit, RbwParser,
  FormulaManagerUnit;

type
  {@name defines the types of parameters used in MODFLOW.
  @value(ptUndefined ptUndefined represents an undefined type.)
  @value(ptLPF_HK ptLPF_HK represents the HK parameter type
    in the LPF package. (Hydraulic conductivity in the
    horizontal (row) direction.))
  @value(ptLPF_HANI ptLPF_HANI represents the HANI parameter type
    in the LPF package. (Horizontal anisotropy: the ratio of hydraulic
    conductivity along columns to hydraulic conductivity along rows.
    The hydraulic conductivity along columns is the product of the values
    in HK and HANI))
  @value(ptLPF_VK ptLPF_VK represents the VK parameter type
    in the LPF package. (Hydraulic conductivity in the
    vertical direction.))
  @value(ptLPF_VANI ptLPF_VANI represents the VANI parameter type
    in the LPF package. (Vertical anisotropy: the ratio of
    hydraulic conductivity along rows to vertical hydraulic
    conductivity.)  HK is divided by VANI to obtain vertical
    hydraulic conductivity, and values of VANI typically are greater
    than or equal to 1.0)
  @value(ptLPF_SS ptLPF_SS represents the SS parameter type
    in the LPF package. (Specific storage.))
  @value(ptLPF_SY ptLPF_SY represents the SY parameter type
    in the LPF package. (Specific yield.))
  @value(ptLPF_VKCB ptLPF_VKCB represents the VKCB parameter type
    in the LPF package. (Vertical hydraulic conductivity of a
    Quasi-three-dimensional confining layer.))
  @value(ptRCH ptRCH represents the RCH parameter type
    in the RCH package. (ptRCH defines values of the recharge at the boundary.))
  @value(ptEVT ptEVT represents the EVT parameter type
    in the EVT package. (ptEVT defines values of the maximum
    evapotranspiration at the boundary.))
  @value(ptETS ptETS represents the ETS parameter type
    in the ETS package. (ptETS defines values of the maximum
    evapotranspiration at the boundary.))
  @value(ptCHD ptCHD represents the CHD parameter type
    in the CHD package. (ptCHD defines values of the start
    and end head at the boundary.))
  @value(ptGHB ptGHB represents the GHB parameter type
    in the General-Head Boundary package. (ptGHB defines values of the conductance
    at the boundary.))
  @value(ptQ ptQ represents the Q parameter type
    in the Well package. (ptQ defines values of the pumping rate
    at the boundary.))
  @value(ptRIV ptRIV represents the RIV parameter type
    in the River package. (ptRIV defines values of the conductance
    at the boundary.))
  @value(ptDRN ptDRN represents the DRN parameter type
    in the Drain package. (ptDRN defines values of the conductance
    at the boundary.))
  @value(ptDRT ptDRT represents the DRT parameter type
    in the Drain Return package. (ptDRT defines values of the conductance
    at the boundary.))
  @value(ptSFR ptSFR represents the SFR parameter type
    in the SFR package. (ptSFR defines values of the streambed hydraulic
    conductivity at the boundary.))
  @value(ptHFB ptHFB represents the HFB parameter type
    in the HFB package. (ptHFB defines values of the hydraulic characteristic
    of the barrier.))

  @value(ptHUF_HK ptHUF_HK represents the HK parameter type
    in the HUF package. (ptHUF_HK defines values of the horizontal hydraulic conductivity
    of the hydrogeologic unit.))
  @value(ptHUF_HANI ptHUF_HANI represents the HANI parameter type
    in the HUF package. (ptHUF_HANI defines values of the horizontal anisotropy
    of the hydrogeologic unit.))
  @value(ptHUF_VK ptHUF_VK represents the VK parameter type
    in the HUF package. (ptHUF_VK defines values of the vertical hydraulic conductivity
    of the hydrogeologic unit.))
  @value(ptHUF_VANI ptHUF_VANI represents the VANI parameter type
    in the HUF package. (ptHUF_VANI defines values of the vertical anisotropy
    of the hydrogeologic unit.))
  @value(ptHUF_SS ptHUF_SS represents the SS parameter type
    in the HUF package. (ptHUF_SS defines values of the specific storage
    of the hydrogeologic unit.))
  @value(ptHUF_SY ptHUF_SY represents the SY parameter type
    in the HUF package. (ptHUF_SY defines values of the specific yield
    of the hydrogeologic unit.))
  @value(ptHUF_SYTP ptHUF_SYTP represents the SYTP parameter type
    in the HUF package. (ptHUF_SYTP defines values of the storage coefficient
    for the top active cell.))
  @value(ptHUF_KDEP ptHUF_KDEP represents the KDEP parameter type
    in the KDEP package. (ptHUF_KDEP defines values of the depth-dependent
    hydraulic conductivity coefficient.))
  @value(ptHUF_LVDA ptHUF_LVDA represents the LVDA parameter type
    in the LVDA package. (ptHUF_LVDA defines values of horizontal anisotropy.))
  @value(ptSTR ptSTR represents the STR parameter type
    in the STR package. (ptSTR defines values of stream conductance.))
  @value(ptQMAX ptQMAX represents the QMAX parameter type
    in the Farm Process. (ptQMAX defines the maximum pumping rate.))

  TPhastModel.UpdateModelMateParameter should be updated
  if new parameters are added.
  }
  TParameterType = (ptUndefined, ptLPF_HK, ptLPF_HANI, ptLPF_VK,
    ptLPF_VANI, ptLPF_SS, ptLPF_SY, ptLPF_VKCB, ptRCH, ptEVT, ptETS,
    ptCHD, ptGHB, ptQ,
    ptRIV, ptDRN, ptDRT, ptSFR, ptHFB,
    ptHUF_HK, ptHUF_HANI, ptHUF_VK, ptHUF_VANI, ptHUF_SS, ptHUF_SY,
    ptHUF_SYTP, ptHUF_KDEP, ptHUF_LVDA, ptSTR, ptQMAX, ptPEST);
  //

  // @name is used to indicate groups of related MODFLOW parameters.
  TParameterTypes = set of TParameterType;

  {@name is designed to allow @link(TOrderedCollection) to identify
    changed and new items during @link(TOrderedCollection.Assign
    TOrderedCollection.Assign).}
  TOrderedItem = class(TCollectionItem)
  private
    {@name is the ID of a @classname that has been assigned to this
     @classname.  If no @classname has been assigned to it, @name is -1.}
    FForeignId: integer;
    // See @link(AlwaysAssignForeignId).
    FAlwaysAssignForeignId: boolean;
    FInsertionNeeded: boolean;
    FNewIndex: Integer;
  protected
    { TODO -cRefactor : Consider replacing Model with an interface. }
    //
    function Model: TBaseModel;
    function GetOnInvalidateModelEvent: TNotifyEvent;
    property OnInvalidateModelEvent: TNotifyEvent read GetOnInvalidateModelEvent;
    // @name tests whether another @classname is identical to the current one.
    function IsSame(AnotherItem: TOrderedItem): boolean; virtual; abstract;
    // @name invalidates the model.
    // @seeAlso(TOrderedCollection.InvalidateModel)
    // @seeAlso(TBaseModel.Invalidate)
    procedure InvalidateModel; virtual;
    // if @name is @true, @link(FForeignId) will always be assigned during
    // @link(Assign).  Otherwise, @link(FForeignId) will only be assigned if
    // @link(IsSame) returns @false.
    // @name is set to @true in @link(TModflowParamItem)
    // and @link(TGlobalVariableItem).
    property AlwaysAssignForeignId: boolean read FAlwaysAssignForeignId
      write FAlwaysAssignForeignId;
    procedure SetBooleanProperty(var AField: boolean; const NewValue: boolean);
    procedure SetIntegerProperty(var AField: Integer; const NewValue: Integer);
    procedure SetRealProperty(var AField: double; NewValue: double);
    procedure SetCaseSensitiveStringProperty(var AField: string;
      const NewValue: string);
    procedure SetCaseInsensitiveStringProperty(var AField: string;
      NewValue: string);
  public
    // @name copies Source to the current @classname.  It will also assign
    // @link(FForeignId) if @link(AlwaysAssignForeignId) is @true or
    // @link(IsSame) returns @false.
    procedure Assign(Source: TPersistent); override;
    // @name creates and instance of @classname and
    // sets @link(FForeignId) to -1.
    constructor Create(Collection: TCollection); override;
    property ForeignId: Integer read FForeignId;
  end;

  // @name defines boundary properties that are defined with formulas but
  // are do not have a starting and ending time assigned. A starting time is
  // defined in the descendant @link(TCustomBoundaryItem). A @name may be
  // associated with some other class that does have a starting or ending time
  // assigned.
  // Descendants of @classname must override @link(UpdateFormulaDependencies),
  // @link(GetObserver), and @link(GetScreenObject). They must also assign
  // values to @link(OnRemoveSubscription) and @link(OnRestoreSubscription);
  // If @link(UpdateFormulaDependencies) is overridden, @link(GetScreenObject)
  // might not be used.
  TFormulaOrderedItem = class(TOrderedItem)
  private
    FOnRemoveSubscription: TChangeSubscription;
    FOnRestoreSubscription: TChangeSubscription;
  protected
    procedure UpdateFormulaDependencies(OldFormula: string;
      var NewFormula: string; Observer: TObserver; Compiler: TRbwParser);
      virtual;
    function GetObserver(Index: Integer): TObserver; virtual; abstract;
    function GetScreenObject: TObject; virtual; abstract;
    // After calling this function, the calling function needs to
    // call AddSubscriptionEvents on the result.
    function CreateBlockFormulaObject(Orientation:
      TDataSetOrientation): TFormulaObject;
  public
    property Observer[Index: Integer]: TObserver read GetObserver;
    procedure UpdateFormulaBlocks(Value: string; Position: integer;
      var FormulaObject: TFormulaObject);
    procedure UpdateFormulaNodes(Value: string; Position: integer;
      var FormulaObject: TFormulaObject);
    property OnRemoveSubscription: TChangeSubscription
      read FOnRemoveSubscription write FOnRemoveSubscription;
    property OnRestoreSubscription: TChangeSubscription
      read FOnRestoreSubscription write FOnRestoreSubscription;
    property ScreenObject: TObject read GetScreenObject;
  end;

  TPestMethodItem = class(TOrderedItem)
  private
    FPestParamMethod: TPestParamMethod;
    procedure SetPestParamMethod(const Value: TPestParamMethod);
  protected
    function IsSame(AnotherItem: TOrderedItem): boolean; override;
  public
    procedure Assign(Source: TPersistent); override;
  published
    property PestParamMethod: TPestParamMethod read FPestParamMethod
      write SetPestParamMethod;
  end;

  // @name is a base class for collections that avoid deleting their collection
  // items during assign whenever they can. @name is typically used to
  // allow editing of the collection in a GUI.  The model owns (directly or
  // indirectly) one copy of the @classname.  Another copy will be created
  // in the GUI in which @link(TOrderedCollection.Model) will be @nil.
  // The user will edit this latter copy in the GUI.  The copy then gets
  // assigned back to the original copy.
  // @seealso(TOrderedCollection.Assign)
  TOrderedCollection = class(TCollection)
  private
    { TODO -cRefactor : Consider replacing Model with an interface. }
    // See @link(Model).
    FModel: TBaseModel;
    function GetCount: Integer;
    procedure SetCount(const Value: Integer);
  protected
    // @name invalidates the model.
    // @seeAlso(TBaseModel.Invalidate)
    procedure InvalidateModel; virtual;
    // If @name returns true, @link(Assign) will sort the items
    // using the same order as in the collection that is being assigned to it.
    function SortItems: Boolean; virtual;
  public
    function First: TCollectionItem;
    function Last: TCollectionItem;
    // @name tests whether the contents of AnOrderedCollection are the same
    // as the current @classname.
    function IsSame(AnOrderedCollection: TOrderedCollection): boolean; virtual;
    { TODO -cRefactor : Consider replacing Model with a TNotifyEvent or interface. }
    // @name is a @link(TPhastModel) or nil.
    property Model: TBaseModel read FModel;
    { TODO -cRefactor : Consider replacing Model with a TNotifyEvent or interface. }
    // @name creates an instance of @classname.
    // @param(ItemClass ItemClass must be a descendant of @link(TOrderedItem).)
    // @param(Model Model must be a @link(TPhastModel) or nil.)
    constructor Create(ItemClass: TCollectionItemClass; Model: TBaseModel);
    // @name copies the source @classname to itself.  If @link(Model) is nil,
    // it uses the inherited method which causes it to delete all its items,
    // and copy new ones from the source.  If @link(Model) is assigned,
    // @unorderedlist(
    //   @item(existing items will be copied back to the items from which
    //     they were originally copied.)
    //   @item(items deleted in the copy will be deleted in the original.)
    //   @item(new items created in the copy will be inserted into the
    //     original at the same position.)
    // )
    procedure Assign(Source: TPersistent); override;
    function FindMatchingItem(AnOrderedItem: TOrderedItem): TOrderedItem;
    property Count: Integer read GetCount write SetCount;
  end;

  // @name extends @link(TOrderedCollection) by adding
  // @link(TEnhancedOrderedCollection.IndexOf) and
  // @link(TEnhancedOrderedCollection.Remove).
  TEnhancedOrderedCollection = class(TOrderedCollection)
  public
    // @name returns the position of Item.  @name returns -1
    // if Item is not in the @classname.
    function IndexOf(Item: TOrderedItem): integer;
    // @name removes Item from the @classname if it is in it.
    procedure Remove(Item: TOrderedItem);
  end;

  TPestMethodCollection = class(TEnhancedOrderedCollection)
  private
    function GetItems(const Index: Integer): TPestMethodItem;
    procedure SetItems(const Index: Integer; const Value: TPestMethodItem);
  public
    constructor Create(Model: TBaseModel);
    property Items[const Index: Integer]: TPestMethodItem read GetItems
      write SetItems; default;
  end;

  TCustomObjectOrderedCollection = class(TEnhancedOrderedCollection)
  private
    FScreenObject: TObject;
  protected
    property ScreenObject: TObject read FScreenObject;
  public
    constructor Create(ItemClass: TCollectionItemClass; Model: TBaseModel;
      AScreenObject: TObject);
  end;

  // @name is a @link(TEnhancedOrderedCollection) that stores of list of
  // @link(TDataArray)s that it can delete. The list (@link(NewDataSets))
  // is not created by the @classname.  Instead another class
  // creates it and assigns it to @classname. @link(TCustomCreateRequiredDataSetsUndo)
  // is an example of a class that assigns @link(NewDataSets).
  //
  // When a new @link(TDataArray) is created, it should be added to
  // @link(NewDataSets) using @link(AddOwnedDataArray);
  // In @link(TUndoItem.DoCommand),  @link(ClearNewDataSets) should be called
  // before the @link(TDataArray)s are created.
  // In @link(TUndoItem.Undo),  @link(RemoveNewDataSets) should be called;
  TLayerOwnerCollection = class(TEnhancedOrderedCollection)
  private
    // See @link(NewDataSets).
    FNewDataSets: TList;
  protected
    // @name adds DataArray to @link(NewDataSets)
    procedure AddOwnedDataArray(DataArray: TDataArray);
  public
    // @name clears @link(NewDataSets).
    procedure ClearNewDataSets;
    // @name frees all the @link(TDataArray)s in @link(NewDataSets).
    procedure RemoveNewDataSets;
    // @name is the list of @link(TDataArray)s managed by @classname.
    // @name is NOT owned by @classname.
    property NewDataSets: TList read FNewDataSets write FNewDataSets;
  end;

  TPestTransform = (ptNoTransform, ptLog, ptFixed, ptTied);
  TPestChangeLimitation = (pclRelative, pclFactor, pclAbsolute);

  TPilotPointObsGrp = class(TPhastCollectionItem)
  private
    FObsGroupName: string;
    FLayer: Integer;
    FObsGroup: TObject;
    procedure SetLayer(const Value: Integer);
    procedure SetObsGroupName(const Value: string);
    function GetObsGroupName: string;
  public
    procedure Assign(Source: TPersistent); override;
    function IsSame(OtherItem: TPilotPointObsGrp): Boolean;
    property ObsGroup: TObject read FObsGroup write FObsGroup;
  published
    Property ObsGroupName: string read GetObsGroupName write SetObsGroupName;
    property Layer: Integer read FLayer write SetLayer;
  end;

  TPPObsGrpCollection = class(TPhastCollection)
  private
    FModel: TBaseModel;
    function GetItem(Index: Integer): TPilotPointObsGrp;
    procedure SetItem(Index: Integer; const Value: TPilotPointObsGrp);
  public
    Constructor Create(Model: TBaseModel);
    function Add: TPilotPointObsGrp;
    function IsSame(OtherCollection: TPPObsGrpCollection): Boolean;
    property Items[Index: Integer]: TPilotPointObsGrp read GetItem
      write SetItem; default;
    function GetGroupNameByLayer(Layer: integer): string;
    procedure SetGroupNameByLayer(Layer: integer; const GroupName: string);
  end;

  // @name represents a MODFLOW parameter
  TModflowParameter = class abstract (TOrderedItem)
  private
    // See @link(ParameterType).
    FParameterType: TParameterType;
    // See @link(Value).
    FValue: double;
    FTransform: TPestTransform;
    FStoredOffset: TRealStorage;
    FStoredScale: TRealStorage;
    FChangeLimitation: TPestChangeLimitation;
    FStoredLowerBound: TRealStorage;
    FTiedParameterName: string;
    FParameterGroup: string;
    FStoredUpperBound: TRealStorage;
    FStoredAbsoluteN: TRealStorage;
    FUseInitialValuePriorInfo: Boolean;
    FRegularizationGroup: string;
    FAddedToPval: Boolean;
    FStoredInitialValuePriorInfoWeight: TRealStorage;
    FPilotPointObsGrpCollection: TPPObsGrpCollection;
    procedure NotifyHufKx;
    procedure NotifyHufKy;
    procedure NotifyHufKz;
    procedure NotifyHufSS;
    procedure NotifyHufSy;
    function GetLowerBound: double;
    function GetUpperBound: double;
    procedure SetChangeLimitation(const Value: TPestChangeLimitation);
    procedure SetLowerBound(const Value: double);
    procedure SetParameterGroup(const Value: string);
    procedure SetStoredLowerBound(const Value: TRealStorage);
    procedure SetStoredOffset(const Value: TRealStorage);
    procedure SetStoredScale(const Value: TRealStorage);
    procedure SetStoredUpperBound(const Value: TRealStorage);
    procedure SetTiedParameterName(const Value: string);
    procedure SetTransform(const Value: TPestTransform);
    procedure SetUpperBound(const Value: double);
    function GetOffset: double;
    function GetScale: double;
    procedure SetOffset(const Value: double);
    procedure SetScale(const Value: double);
    procedure SetStoredAbsoluteN(const Value: TRealStorage);
    function GetAbsoluteN: double;
    procedure SetAbsoluteN(const Value: double);
    procedure SetUseInitialValuePriorInfo(const Value: Boolean);
    procedure SetRegularizationGroup(const Value: string);
    procedure SetStoredInitialValuePriorInfoWeight(const Value: TRealStorage);
    function GetInitialValuePriorInfoWeight: double;
    procedure SetInitialValuePriorInfoWeight(const Value: double);
    procedure SetPilotPointObsGrpCollection(const Value: TPPObsGrpCollection);
  protected
    // See @link(ParameterName).
    FParameterName: string;
    // See @link(ParameterType).
    procedure SetParameterType(const Value: TParameterType); virtual;
    // See @link(ParameterName).
    procedure SetParameterName(const Value: string); virtual; abstract;
    // See @link(Value).
    procedure SetValue(AValue : double); virtual;
  public
    constructor Create(Collection: TCollection); override;
    procedure NotifyParamChange(const Value: TParameterType);
    // @name copies @link(ParameterName), @link(ParameterType), @link(Value)
    // and @link(FForeignId) from source.  (@link(FForeignId) gets assigned the
    // value of the Source's ID not the Source's @link(FForeignId).
    procedure Assign(Source: TPersistent); override;
    // @name tests whether @1ink(ParameterName), @link(ParameterType)
    // @link(Value) are the same as or different from those of AnotherItem.
    function IsSame(AnotherItem: TOrderedItem): boolean; override;
    // @name destroys @classname.  If @link(ParameterType)
    // in [ptRCH, ptEVT, ptETS, ptCHD, ptGHB, ptQ, ptRIV, ptDRN, ptDRT]
    // All @link(TScreenObject)s that use @classname will have it removed from
    // them.
    Destructor Destroy; override;
    // PARLBND in PEST
    property LowerBound: double read GetLowerBound write SetLowerBound;
    // PARUBND in PEST
    property UpperBound: double read GetUpperBound write SetUpperBound;
    // SCALE in PEST
    property Scale: double read GetScale write SetScale;
    // OFFSET in PEST
    property Offset: double read GetOffset write SetOffset;
    // Absolute(N) and ABSPARMAX(N) in PEST
    property AbsoluteN: double read GetAbsoluteN write SetAbsoluteN;
    property AddedToPval: Boolean read FAddedToPval write FAddedToPval;
    property InitialValuePriorInfoWeight: double
      read GetInitialValuePriorInfoWeight write SetInitialValuePriorInfoWeight;
  published
    // @name is the name of the parameter.  All parameter names must be unique
    // but ensuring that they are unique is left up to the GUI rather than
    // being validated by @classname.
    // In UCODE and PEST, parameter names can be up to 12 characters in length.
    // PARNME in PEST
    property ParameterName: string read FParameterName write SetParameterName;
    // @name indicates what type of parameter this is.
    property ParameterType: TParameterType read FParameterType
      write SetParameterType;
    // @name is the value assigned to the parameter.
    // PARVAL1 in PEST
    property Value: double read FValue write SetValue;
    // PARTRANS in PEST
    property Transform: TPestTransform read FTransform write SetTransform;
    // PARCHGLIM in PEST
    property ChangeLimitation: TPestChangeLimitation read FChangeLimitation
      write SetChangeLimitation;
    // PARLBND in PEST
    property StoredLowerBound: TRealStorage read FStoredLowerBound
      write SetStoredLowerBound;
    // PARUBND in PEST
    property StoredUpperBound: TRealStorage read FStoredUpperBound
      write SetStoredUpperBound;
    // PARGP in PEST
    property ParameterGroup: string read FParameterGroup write SetParameterGroup;
    // SCALE in PEST
    property StoredScale: TRealStorage read FStoredScale write SetStoredScale;
    // OFFSET in PEST
    property StoredOffset: TRealStorage read FStoredOffset write SetStoredOffset
      Stored False;
    // DERCOM in PEST is not currently supported.

    // PARTIED in PEST
    property TiedParameterName: string read FTiedParameterName
      write SetTiedParameterName;
    // Absolute(N) and ABSPARMAX(N) in PEST
    property StoredAbsoluteN: TRealStorage read FStoredAbsoluteN
      write SetStoredAbsoluteN;
    // @name determines whether or not the parameter will be included in
    // a prior information equation setting it equal to its initial value.
    property UseInitialValuePriorInfo: Boolean read FUseInitialValuePriorInfo
      write SetUseInitialValuePriorInfo Stored True;
    property StoredInitialValuePriorInfoWeight: TRealStorage
      read FStoredInitialValuePriorInfoWeight
      write SetStoredInitialValuePriorInfoWeight;
    // @name is the regularization group of the parameter in the
    // initial value prior information equation.
    property RegularizationGroup: string read FRegularizationGroup
      write SetRegularizationGroup Stored True;
    property PilotPointObsGrpCollection: TPPObsGrpCollection
      read FPilotPointObsGrpCollection write SetPilotPointObsGrpCollection
      Stored True;
  end;

function ParmeterTypeToStr(ParmType: TParameterType): string;
function CorrectParamName(const Value: string): string;

const
  Mf15ParamType: TParameterTypes = [ptRCH, ptETS, ptHFB, ptPEST, ptCHD,
    ptGHB, ptQ, ptRIV, ptDRN, ptPEST];

  Mf2005ParamType: TParameterTypes = [ptLPF_HK, ptLPF_HANI, ptLPF_VK,
    ptLPF_VANI, ptLPF_SS, ptLPF_SY, ptLPF_VKCB, ptRCH, ptEVT, ptETS,
    ptCHD, ptGHB, ptQ,
    ptRIV, ptDRN, ptDRT, ptSFR, ptHFB,
    ptHUF_HK, ptHUF_HANI, ptHUF_VK, ptHUF_VANI, ptHUF_SS, ptHUF_SY,
    ptHUF_SYTP, ptHUF_KDEP, ptHUF_LVDA, ptSTR, ptQMAX, ptPEST];

  SutraParamType: TParameterTypes = [ptPEST];

implementation

uses ModflowParameterUnit, LayerStructureUnit, PhastModelUnit, ScreenObjectUnit,
  ModflowBoundaryUnit, ModflowTransientListParameterUnit,
  ModflowSfrParamIcalcUnit, Generics.Collections, Modflow6TimeSeriesUnit,
  Generics.Defaults, Math, frmGoPhastUnit, LockedGlobalVariableChangers,
  PestObsGroupUnit;

function ParmeterTypeToStr(ParmType: TParameterType): string;
begin
  case ParmType of
    ptUndefined: result := 'Undefined';
    ptLPF_HK: result := 'HK' ;
    ptLPF_HANI: result := 'HANI' ;
    ptLPF_VK: result := 'VK' ;
    ptLPF_VANI: result := 'VANI' ;
    ptLPF_SS: result := 'SS' ;
    ptLPF_SY: result := 'SY' ;
    ptLPF_VKCB: result := 'VKCB' ;
    ptRCH: result := 'RCH' ;
    ptEVT: result := 'EVT' ;
    ptETS: result := 'ETS' ;
    ptCHD: result := 'CHD' ;
    ptGHB: result := 'GHB' ;
    ptQ: result := 'Q' ;
    ptRIV: result := 'RIV' ;
    ptDRN: result := 'DRN' ;
    ptDRT: result := 'DRT' ;
    ptHUF_SYTP: result := 'SYTP' ;
    ptHUF_LVDA: result := 'LVDA' ;
    ptSTR: result := 'STR' ;
    ptQMAX: result := 'QMAX' ;
    ptPEST: result := 'PEST' ;
    else Assert(False);
  end;
end;

constructor TOrderedCollection.Create(ItemClass: TCollectionItemClass;
  Model: TBaseModel);
begin
  inherited Create(ItemClass);
  Assert((Model = nil) or (Model is TCustomModel));
  FModel := Model;
end;

function TOrderedCollection.FindMatchingItem(
  AnOrderedItem: TOrderedItem): TOrderedItem;
var
  Index: Integer;
  AnItem: TOrderedItem;
begin
  result := nil;
  for Index := 0 to Count - 1 do
  begin
    AnItem := Items[Index] as TOrderedItem;
    if AnItem.ID = AnOrderedItem.FForeignId then
    begin
      result := AnItem;
      Exit;
    end;
  end;
end;

function TOrderedCollection.First: TCollectionItem;
begin
  result := Items[0];
end;

function TOrderedCollection.GetCount: Integer;
begin
  result := inherited Count;
end;

function TOrderedCollection.IsSame(
  AnOrderedCollection: TOrderedCollection): boolean;
var
  Index: Integer;
begin
  result := Count = AnOrderedCollection.Count;
  if result then
  begin
    for Index := 0 to Count - 1 do
    begin
      result := (Items[Index] as TOrderedItem).IsSame(
        AnOrderedCollection.Items[Index] as TOrderedItem);
      if not result then Exit;
    end;
  end;
end;

function TOrderedCollection.Last: TCollectionItem;
begin
  result := Items[Count-1];
end;

procedure TOrderedCollection.SetCount(const Value: Integer);
var
  ExistingCount: integer;
begin
  Assert(Value >= 0);
  ExistingCount := inherited Count;
  while ExistingCount < Value do
  begin
    Add;
    Inc(ExistingCount);
  end;
  while ExistingCount > Value do
  begin
    Last.Free;
    Dec(ExistingCount);
  end;
end;

function TOrderedCollection.SortItems: Boolean;
begin
  result := False;
end;

procedure TOrderedCollection.Assign(Source: TPersistent);
var
  Index: integer;
  AnotherOrderedCollection: TOrderedCollection;
  AnItem: TOrderedItem;
  ForeignItem: TOrderedItem;
//  TempList: TList;
  ID_Array: array of integer;
  ItemIndex: Integer;
  ItemList: TList<TOrderedItem>;
  function FindUnitByForeignId(ForeignId: integer): TOrderedItem;
  var
    Index: integer;
    AnItem: TOrderedItem;
  begin
    result := nil;
    for Index := 0 to AnotherOrderedCollection.Count - 1 do
    begin
      AnItem := AnotherOrderedCollection.Items[Index] as TOrderedItem;
      if AnItem.FForeignId = ForeignId then
      begin
        result := AnItem;
        Exit;
      end;
    end;
  end;
begin
  // if Assign is updated, update IsSame too.
  AnotherOrderedCollection := Source as TOrderedCollection;
  if not IsSame(AnotherOrderedCollection) then
  begin
    Capacity := Max(Count, AnotherOrderedCollection.Count);
    if FModel = nil then
    begin
      SetLength(ID_Array, AnotherOrderedCollection.Count);
      for Index := 0 to AnotherOrderedCollection.Count - 1 do
      begin
        AnItem := AnotherOrderedCollection.Items[Index] as TOrderedItem;
        ID_Array[Index] := AnItem.ID;
      end;
      BeginUpdate;
      try
        While Count > AnotherOrderedCollection.Count do
        begin
          Delete(Count -1);
        end;
        While Count < AnotherOrderedCollection.Count do
        begin
          Add;
        end;
        for ItemIndex := 0 to Count - 1 do
        begin
          Items[ItemIndex].Assign(
            AnotherOrderedCollection.Items[ItemIndex]);
        end;
      finally
        EndUpdate;
      end;
//      inherited;
      for Index := 0 to Count - 1 do
      begin
        AnItem := Items[Index] as TOrderedItem;
        AnItem.FForeignId := ID_Array[Index];
      end;
    end
    else
    begin
      { TODO :
It isn't clear that FInsertionNeeded is actually needed.
Make exhaustive tests to see if it is needed.}
      for Index := 0 to AnotherOrderedCollection.Count - 1 do
      begin
        ForeignItem := AnotherOrderedCollection.Items[Index] as TOrderedItem;
        ForeignItem.FInsertionNeeded := True;
      end;

      for Index := Count - 1 downto 0 do
      begin
        AnItem := Items[Index] as TOrderedItem;
        ForeignItem := FindUnitByForeignId(AnItem.ID);
        if ForeignItem = nil then
        begin
          Delete(Index);
        end
        else
        begin
          AnItem.Assign(ForeignItem);
          ForeignItem.FInsertionNeeded := False;
        end;
      end;

      for Index := 0 to AnotherOrderedCollection.Count - 1 do
      begin
        ForeignItem := AnotherOrderedCollection.Items[Index] as TOrderedItem;
        if (ForeignItem.FForeignId = -1) or
          ForeignItem.FInsertionNeeded then
        begin
          AnItem := Insert(Index) as TOrderedItem;
          AnItem.Assign(ForeignItem);
        end;
      end;

      // Test to make sure everything seems right.
      Assert(Count = AnotherOrderedCollection.Count);

      if SortItems then
      begin
        ItemList := TList<TOrderedItem>.Create;
        try