unit PestControlFileWriterUnit;

interface

uses
  CustomModflowWriterUnit, System.SysUtils, PestObsUnit, GoPhastTypes,
  PhastModelUnit, ObsInterfaceUnit, OrderedCollectionUnit, System.Classes,
  RealListUnit;

type
  TPestControlFileWriter = class(TCustomFileWriter)
  private
//    FNameOfFile: string;
    FUsedObservations: TObservationInterfaceList;
    FUsePval: Boolean;
    F_AbsParMax: TRealList;
    FPriorInfomationEquations: TStringList;
    procedure WriteFirstLine;
    procedure WriteSectionHeader(const SectionID: String);
    procedure WriteControlSection(SetNOPTMAX: Boolean = False);
    // @name is not currently supported. Chapter 7
    procedure WriteSensitivityReuse;
    procedure WriteSingularValueDecomposition;
    procedure WriteLsqr;
    // @name is not currently supported. Section 6.3
    procedure WriteAutomaticUserIntervention;
    // @name is not currently written by ModelMuse.
    // It is written by SVDAPREP.
    // Section 10
    procedure WriteSVD_Assist;
    procedure WriteParameterGroups;
    procedure WriteParameters;
    procedure WriteObservationGroups;
    procedure WriteObservations;
    // @name is not supported because it is only relevant to MODFLOW-2000.
    procedure WriteDerivatives;
    procedure WriteCommandLine;
    procedure WriteModelInputOutput;
    procedure WritePriorInformation;
    procedure WritePredictiveAnalysis;
    procedure WriteRegularisation;
    // Section 13
    procedure WritePareto;
    // NPAR
    function NumberOfParameters: Integer;
    // NOBS
    function NumberOfObservations: integer;
    // NPARGP
    function NumberOfParameterGroups: Integer;
    // NPRIOR
    function NumberOfPriorInformation: Integer;
    // NOBSGP
    function NumberOfObservationGroups: Integer;
    function NumberOfTemplateFiles: Integer;
    procedure GetUsedTypes(var UsedTypes: TParameterTypes);
  protected
    class function Extension: string; override;
  public
    Constructor Create(AModel: TCustomModel; EvaluationType: TEvaluationType); override;
    destructor Destroy; override;
    function WriteFile(const AFileName: string; SetNOPTMAX: Boolean = False): string;
  end;

implementation

uses
  PestPropertiesUnit, ModflowParameterUnit,
  PestParamGroupsUnit, PestObsGroupUnit, frmGoPhastUnit,
  PestObsExtractorInputWriterUnit, frmErrorsAndWarningsUnit,


  DataSetUnit, PilotPointDataUnit, System.Math,
  QuadTreeClass, PointCollectionUnit, System.Generics.Collections, FastGEO,
  System.Generics.Defaults, System.IOUtils, PilotPointCovarinceFileWriterUnit;

resourcestring
  StrNoParametersHaveB = 'No parameters have been defined';
  StrNoPestParameters = 'No parameters have been defined for use with PEST.';
  StrNoParameterGroups = 'No parameter groups defined';
  StrNoPESTParameterGr = 'No PEST parameter groups have been defined. Define them in "Model|Manage Parameters".';
  StrNoObservationGroup = 'No observation groups defined';
  StrNoPESTObservation = 'No PEST observation groups have been defined. "Define them in "Model|Pest Properties".';
  StrParameterGroupName = 'Parameter group name not assigned';
  StrTheParameterSH = 'The parameter "%s" has not been assigned to a paramet' +
  'er group ';
  StrObservationGroupNo = 'Observation group not assigned';
//  StrNoObservationGroupAssigned = 'No observation group has been assigned to %s.';
  StrParameterUndefined = 'Parameter undefined';
  StrPilotPointsWereDe = 'Pilot points were defined for %s but no parameter ' +
  'by that name that uses pilot points has been defined.';
  StrObservationGroupNa = 'Observation Group name too long';
  StrTheNamesOfSHas = 'The names of %s has been truncated because "regul" mu' +
  'st be inserted at the beginning of the observation group name to indicate' +
  ' it is to be used for regularization.';
  StrObservationGroupUn = 'Observation group undefined';
  StrNoObservationGroupAssigned = 'No observation group is defined for "%s"';
  StrInvalidParameterVa = 'Invalid parameter value';
  StrForParameter0s = 'For parameter "%0:s", the parameter value is %1:s tha' +
  'n the %2:s bound for the parameter.';
  StrLess = 'less';
  StrGreater = 'greater';
  StrLower = 'lower';
  StrUpper = 'upper';
  StrInvalidPESTVariabl = 'Invalid PEST variable value';
  Str0sInThePESTPre = '%0:s in the PEST Predictive Analysis section must be ' +
  'greater than 0 but has a value of %1:g.';
  Str0sInThePESTPre2 = '%0:s in the PEST Predictive Analysis section must be' +
  ' greater than %1:s 0 but they have values of %2:g and %3:g.';
  StrPredictionObservati = 'Prediction observation specified incorrectly';
  StrIfThePredictionAn = 'If the prediction analysis mode is used in PEST, t' +
  'here must be exactly one observation assigned to the "predict" observatio' +
  'n group. In this model there were %d such observation assigned to the "pr' +
  'edict" group.';
  StrTooManyParameters = 'Too many parameters subject to absolute change lim' +
  'its.';
  StrPESTAllowsAMaximu = 'PEST allows a maximum of 10 parameters to be subje' +
  'ct to absolute change limits (ABSPARMAX). You specified absolute change l' +
  'imits in %d parameters. The remainder will be skipped.';
  StrInvalidPESTDelimit = 'Invalid PEST delimiter';
  StrUseOfAsADeli = 'Use of "@" as a delimiter will cause errors with SUTRA ' +
  'models. Fix this is the PEST Properties dialog box.';
  StrObservationGroupTa = 'Observation group targets must be greater than ze' +
  'ro.';
  StrTheGroupTargetFor = 'The group target for the %s observation group is l' +
  'ess than or equal to zero.';
  StrEquationsForVert = '# Equations for vertical continuity between layers ' +
  '%0:d and %1:d for parameter %2:s in data set %3:s.';
  StrEquationsForHori = '# Equations for horizontal continuity in layers %0:' +
  'd for parameter %1:s.';
  StrEquationForIniti = '# Equation for initial value for parameter %0:s.';
  StrTheSearchDistance = 'The search distance for within-layer continuity pr' +
  'ior information equations is zero.';
  StrToDefinePriorinfo = 'To define prior-information equations for within-l' +
  'ayer continuity, the search distance musts be large enough that every pil' +
  'ot point has at least one neighbor that is within the search distance.';

{ TPestControlFileWriter }


constructor TPestControlFileWriter.Create(AModel: TCustomModel;
  EvaluationType: TEvaluationType);
begin
  inherited;
  FUsedObservations := TObservationInterfaceList.Create;
  F_AbsParMax:= TRealList.Create;
  F_AbsParMax.Sorted := True;
  FPriorInfomationEquations := TStringList.Create;
end;

destructor TPestControlFileWriter.Destroy;
begin
  FPriorInfomationEquations.Free;
  F_AbsParMax.Free;
  FUsedObservations.Free;
  inherited;
end;

class function TPestControlFileWriter.Extension: string;
begin
  result := '.pst';
end;

function TPestControlFileWriter.NumberOfObservationGroups: Integer;
begin
  result := Model.PestProperties.ObservationGroups.Count
    + Model.PestProperties.PriorInfoObservationGroups.Count;
  if (result = 0) and (Model.PestProperties.PestStatus = psActive) then
  begin
    frmErrorsAndWarnings.AddError(Model, StrNoObservationGroup,
      StrNoPESTObservation);
  end;
end;

function TPestControlFileWriter.NumberOfObservations: integer;
var
  TempList: TObservationInterfaceList;
  ObsIndex: Integer;
  AnObs: TCustomObservationItem;
  IObs: IObservationItem;
  ObservationGroups: TPestObservationGroups;
  ObsGroup: TPestObservationGroup;
begin
  ObservationGroups := frmGoPhast.PhastModel.PestProperties.ObservationGroups;
  TempList := TObservationInterfaceList.Create;
  try
    frmGoPhast.PhastModel.FillObsInterfaceItemList(TempList, True);
    FUsedObservations.Capacity := TempList.Count;
    for ObsIndex := 0 to TempList.Count - 1 do
    begin
      IObs := TempList[ObsIndex];
      if IObs is TCustomObservationItem then
      begin
        AnObs := TCustomObservationItem(IObs);
        if AnObs.Print then
        begin
          FUsedObservations.Add(IObs);
          ObsGroup := ObservationGroups.GetObsGroupByName(IObs.ObservationGroup);
          if ObsGroup = nil then
          begin
            ObservationGroups.Add.ObsGroupName := IObs.ObservationGroup;
          end;
        end;
      end
      else
      begin
        FUsedObservations.Add(IObs);
        ObsGroup := ObservationGroups.GetObsGroupByName(IObs.ObservationGroup);
        if ObsGroup = nil then
        begin
          ObservationGroups.Add.ObsGroupName := IObs.ObservationGroup;
        end;
      end;
    end;
    result := FUsedObservations.Count;
    if result = 0 then
    begin
      frmErrorsAndWarnings.AddError(Model, StrNoObservationsDefi,
        StrNoObservationsHave);
    end;
  finally
    TempList.Free;
  end;
end;

function TPestControlFileWriter.NumberOfParameterGroups: Integer;
begin
  result := Model.ParamGroups.Count;
  if result = 0 then
  begin
    frmErrorsAndWarnings.AddError(Model, StrNoParameterGroups,
      StrNoPESTParameterGr);
  end;
end;

function TPestControlFileWriter.NumberOfParameters: Integer;
var
  ParamIndex: Integer;
  AParam: TModflowParameter;
  UsedTypes: TParameterTypes;
  index: Integer;
  ASteadyParam: TModflowSteadyParameter;
begin
  result := 0;

  UsedTypes := [];
  if Model.ModelSelection = msModflow2015 then
  begin
    UsedTypes := Mf15ParamType;
  end
  else if Model.ModelSelection in Modflow2005Selection then
  begin
    UsedTypes := Mf2005ParamType
  end
  else if Model.ModelSelection in SutraSelection then
  begin
    UsedTypes := SutraParamType
  end
  else
  begin
    Assert(False);
  end;

  for ParamIndex := 0 to Model.ModflowSteadyParameters.Count - 1 do
  begin
    ASteadyParam := Model.ModflowSteadyParameters[ParamIndex];
    if (ASteadyParam.ParameterType in UsedTypes)
      and (ASteadyParam.UsedDirectly or (ASteadyParam.ParameterType <> ptPEST))
    { and not ASteadyParam.UsePilotPoints} then
    begin
      Inc(result);
    end;
  end;

  for ParamIndex := 0 to Model.ModflowTransientParameters.Count - 1 do
  begin
    AParam := Model.ModflowTransientParameters[ParamIndex];
    if AParam.ParameterType in UsedTypes then
    begin
      Inc(result);
    end;
  end;

  for ParamIndex := 0 to Model.HufParameters.Count - 1 do
  begin
    AParam := Model.HufParameters[ParamIndex];
    if AParam.ParameterType in UsedTypes then
    begin
      Inc(result);
    end;
  end;

  for index := 0 to Model.PilotPointData.Count - 1 do
  begin
    result := result + Model.PilotPointData[index].Count;
  end;

  if result = 0 then
  begin
    frmErrorsAndWarnings.AddError(Model, StrNoParametersHaveB,
      StrNoPestParameters)
  end;
end;

function TPestControlFileWriter.NumberOfPriorInformation: Integer;
const
  EquationRoot = 'eq_';
var
  UsedTypes: TParameterTypes;
  PilotPointParameters: TStringList;
  ParamIndex: Integer;
  AParam: TModflowParameter;
  index: Integer;
  PilotPointItem: TStoredPilotParamDataItem;
  ParameterIndex: Integer;
  PilotParamName: string;
  EquationCount: Integer;
  ObservationGroupNames: TStringList;
  ObsGroupIndex: Integer;
  ObservationGroups: TPestObservationGroups;
  ObsGroup: TPestObservationGroup;
  LocationQuadTree: TRbwQuadTree;
  LinkQuadQuadTree: TRbwQuadTree;
  DisLimits: TGridLimit;
  ASteadyParam: TModflowSteadyParameter;
  SearchDistance: Double;
  MaxPilotPointsInRange: Integer;
  PilotPointItemSortList: TList<TStoredPilotParamDataItem>;
  ItemIndex: Integer;
  PilotPointItem1: TStoredPilotParamDataItem;
  PilotPointItem2: TStoredPilotParamDataItem;
  CommentCount: Integer;
  OldDecimalSeparator: Char;
  function NewGroupName: string;
  var
    Index: Integer;
  begin
    Index := ObservationGroups.Count +1;
    result := 'Grp' + IntToStr(Index);
    While ObservationGroupNames.IndexOf(result) >= 0 do
    begin
      Inc(Index);
      result := 'Grp' + IntToStr(Index);
    end;
  end;
  procedure WriteVerticalContinuityEquation(
    PPItem1, PPItem2: TStoredPilotParamDataItem; AParam: TModflowSteadyParameter);
  var
    PPIndex: Integer;
    PilotPoint: TPointItem;
    OtherPP: TPointItem;
    EquationName: string;
    ObsGroupName: string;
    ParameterName1: string;
    ParameterName2: string;
    Equation: string;
  begin
    FPriorInfomationEquations.Add(Format(StrEquationsForVert,
      [PPItem1.Layer + 1, PPItem2.Layer +1, AParam.ParameterName, PPItem1.DataArrayName]));
    Inc(CommentCount);
    ObsGroupName := '';
    LocationQuadTree.Clear;
    for PPIndex := 0 to PPItem1.Points.Count - 1 do
    begin
      PilotPoint := PPItem1.Points[PPIndex];
      LocationQuadTree.AddPoint(PilotPoint.X, PilotPoint.Y, PilotPoint);
    end;
    for PPIndex := 0 to PPItem2.Points.Count - 1 do
    begin
      PilotPoint := PPItem2.Points[PPIndex];
      OtherPP := LocationQuadTree.NearestPointsFirstData(PilotPoint.X, PilotPoint.Y);
      if (PilotPoint.X <> OtherPP.X) or (PilotPoint.Y <> OtherPP.Y) then
      begin
        Continue;
      end;

      ParameterName1 := PPItem1.ParameterName(OtherPP.Index+1);
      ParameterName2 := PPItem2.ParameterName(PilotPoint.Index+1);
//      Value1 := PPItem1.Values[OtherPP.Index].Value;
//      Value2 := PPItem2.Values[PilotPoint.Index].Value;

      Inc(EquationCount);
      EquationName := EquationRoot + IntToStr(EquationCount);

      if ObsGroupName = '' then
      begin
        if AParam.VertSpatialContinuityGroupName = '' then
        begin
          AParam.VertSpatialContinuityGroupName := NewGroupName;
        end;
        ObsGroupIndex := ObservationGroupNames.IndexOf(
          AParam.VertSpatialContinuityGroupName);
        if ObsGroupIndex < 0 then
        begin
          ObsGroup := ObservationGroups.Add;
          ObsGroup.ObsGroupName := AParam.VertSpatialContinuityGroupName;
          ObsGroup.IsRegularizationGroup := True;
          ObservationGroupNames.AddObject(ObsGroup.ObsGroupName, ObsGroup);
        end
        else
        begin
          ObsGroup := ObservationGroupNames.Objects[ObsGroupIndex]
            as TPestObservationGroup;
        end;
        if ObsGroup.IsRegularizationGroup then
        begin
          ObsGroupName := strRegul + Copy(ObsGroup.ObsGroupName, 1,
            AllowableGroupNameLength - Length(strRegul));
        end
        else
        begin
          ObsGroupName := ObsGroup.ObsGroupName;
        end;
      end;

      if AParam.Transform = ptLog then
      begin
        Equation := Format('1.0 * log(%0:s) - 1.0 * log(%1:s) = 0.0', [ParameterName1, ParameterName2]);
      end
      else
      begin
        Equation := Format('1.0 * %0:s - 1.0 * %1:s = 0.0', [ParameterName1, ParameterName2]);
      end;
      FPriorInfomationEquations.Add(Format(' %0:s          %1:s       %2:g     %3:s',
        [EquationName, Equation,
        AParam.VertSpatialContinuityPriorInfoWeight, ObsGroupName]));
    end;
  end;
  procedure WriteHorizontalContinuityEquations(Param: TModflowSteadyParameter;
    PPItem: TStoredPilotParamDataItem);
  var
    PPIndex: Integer;
    PilotPoint: TPointItem;
    Points: TQuadPointInRegionArray;
    NeighborIndex: Integer;
    Neighbors: TList<TPointItem>;
    TestDistance: double;
    NeighborPoint: TPointItem;
    PointDistance: double;
    X: double;
    Y: double;
    XFloat: double;
    YFloat: Double;
    Data: TPointerArray;
    EquationName: string;
    ObsGroupName: string;
    Equation: string;
    ParameterName1: string;
    ParameterName2: string;
//    X: TPoint3D;
  begin
    if SearchDistance <= 0 then
    begin
      frmErrorsAndWarnings.AddError(Model, StrTheSearchDistance,
        StrToDefinePriorinfo)
    end;
    FPriorInfomationEquations.Add(Format(StrEquationsForHori,
      [PPItem.Layer + 1, Param.ParameterName]));
    Inc(CommentCount);
    LinkQuadQuadTree.Clear;
    LocationQuadTree.Clear;
    Neighbors := TList<TPointItem>.Create;
    try
      for PPIndex := 0 to PPItem.Points.Count - 1 do
      begin
        PilotPoint := PPItem.Points[PPIndex];
        LocationQuadTree.AddPoint(PilotPoint.X, PilotPoint.Y, PilotPoint);
      end;
      for PPIndex := 0 to PPItem.Points.Count - 1 do
      begin
        ParameterName1 := PilotPointItem.ParameterName(PPIndex+1);

        PilotPoint := PPItem.Points[PPIndex];
        LocationQuadTree.FindPointsInCircle(PilotPoint.X, PilotPoint.Y,
          SearchDistance, Points, True);
        Assert(Points[0].Data[0] = PilotPoint);
        Neighbors.Clear;
        if Length(Points) > 1 then
        begin
          NeighborPoint := Points[1].Data[0];
          TestDistance := Distance(PilotPoint.Point2D, NeighborPoint.Point2D);
          for NeighborIndex := 1 to Length(Points) - 1 do
          begin
            NeighborPoint := Points[NeighborIndex].Data[0];
            PointDistance := Distance(PilotPoint.Point2D, NeighborPoint.Point2D);
            if (Neighbors.Count >= MaxPilotPointsInRange) and (PointDistance > TestDistance) then
            begin
              break;
            end;
            TestDistance := PointDistance;
            Neighbors.Add(NeighborPoint);
          end;
        end;
        for NeighborIndex := 0 to Neighbors.Count - 1 do
        begin
          NeighborPoint := Neighbors[NeighborIndex];
          X := System.Math.Min(PilotPoint.Index, NeighborPoint.Index);
          Y := System.Math.Max(PilotPoint.Index, NeighborPoint.Index);
          if LinkQuadQuadTree.Count = 0 then
          begin
            LinkQuadQuadTree.AddPoint(X, Y, nil);
          end
          else
          begin
            XFloat := X;
            YFloat := Y;
            LinkQuadQuadTree.FindClosestPointsData(XFloat, YFloat, Data);
            if (XFloat = X) and (YFloat = Y) then
            begin
              Continue
            end;
            LinkQuadQuadTree.AddPoint(X, Y, nil);
          end;
          Inc(EquationCount);
          EquationName := EquationRoot + IntToStr(EquationCount);
          if Param.HorizontalSpatialContinuityGroupName = '' then
          begin
            Param.HorizontalSpatialContinuityGroupName := NewGroupName;
          end;
          ObsGroupIndex := ObservationGroupNames.IndexOf(
            Param.HorizontalSpatialContinuityGroupName);
          if ObsGroupIndex < 0 then
          begin
            ObsGroup := ObservationGroups.Add;
            ObsGroup.ObsGroupName := Param.HorizontalSpatialContinuityGroupName;
            ObsGroup.IsRegularizationGroup := True;
            ObservationGroupNames.AddObject(ObsGroup.ObsGroupName, ObsGroup);
          end
          else
          begin
            ObsGroup := ObservationGroupNames.Objects[ObsGroupIndex]
              as TPestObservationGroup;
          end;
          if ObsGroup.IsRegularizationGroup then
          begin
            ObsGroupName := strRegul + Copy(ObsGroup.ObsGroupName, 1,
              AllowableGroupNameLength - Length(strRegul));
          end
          else
          begin
            ObsGroupName := ObsGroup.ObsGroupName;
          end;
          ParameterName2 := PilotPointItem.ParameterName(NeighborPoint.Index+1);
          if Param.Transform = ptLog then
          begin
            Equation := Format('1.0 * log(%0:s) - 1.0 * log(%1:s) = 0.0', [ParameterName1, ParameterName2]);
          end
          else
          begin
            Equation := Format('1.0 * %0:s - 1.0 * %1:s = 0.0', [ParameterName1, ParameterName2]);
          end;
          FPriorInfomationEquations.Add(Format(' %0:s          %1:s       %2:g     %3:s',
            [EquationName, Equation, Param.HorizontalSpatialContinuityPriorInfoWeight, ObsGroupName]));
        end;
      end;
    finally
      Neighbors.Free;
    end;
  end;
  procedure WriteInitialValueEquation(Param: TModflowParameter; InitialValue: double;
    ParameterName: string; PilotPointItem: TStoredPilotParamDataItem);
  var
    EquationName: string;
    ObsGroupName: string;
    Equation: string;
    IsPilotPoint: Boolean;
    GroupName: string;
  begin
    if not Model.PestProperties.UseInitialValuePriorInfo then
    begin
      Exit;
    end;
    if ParameterName = '' then
    begin
      ParameterName := Param.ParameterName;
    end;
    FPriorInfomationEquations.Add(Format(StrEquationForIniti,
      [ParameterName]));
    Inc(CommentCount);
    IsPilotPoint := PilotPointItem <> nil;
    Inc(EquationCount);
    EquationName := EquationRoot + IntToStr(EquationCount);
    if IsPilotPoint then
    begin
      GroupName := Param.PilotPointObsGrpCollection.
        GetGroupNameByLayerAndFamily(PilotPointItem.Layer, PilotPointItem.ParamFamily);
      if GroupName = '' then
      begin
        GroupName := NewGroupName;
      end;
      ObsGroupIndex := ObservationGroupNames.IndexOf(GroupName);
    end
    else
    begin
      if Param.RegularizationGroup = '' then
      begin
        Param.RegularizationGroup := NewGroupName;
      end;
      ObsGroupIndex := ObservationGroupNames.IndexOf(Param.RegularizationGroup);
    end;
    if ObsGroupIndex < 0 then
    begin
      ObsGroup := ObservationGroups.Add;
      if IsPilotPoint then
      begin
        ObsGroup.ObsGroupName := GroupName;
        ObsGroup.RelativCorrelationFileName :=
          ChangeFileExt(PilotPointItem.FileName, StrCov);
        Param.PilotPointObsGrpCollection.
          SetGroupNameByLayerAndFamily(PilotPointItem.Layer, PilotPointItem.ParamFamily, GroupName);
      end
      else
      begin
        ObsGroup.ObsGroupName := Param.RegularizationGroup;
      end;
      ObsGroup.IsRegularizationGroup := True;
      ObservationGroupNames.AddObject(ObsGroup.ObsGroupName, ObsGroup);
    end
    else
    begin
      ObsGroup := ObservationGroupNames.Objects[ObsGroupIndex] as TPestObservationGroup;
    end;
    if ObsGroup.IsRegularizationGroup then
    begin
      ObsGroupName := strRegul + Copy(ObsGroup.ObsGroupName, 1,
        AllowableGroupNameLength - Length(strRegul))
    end
    else
    begin
      ObsGroupName := ObsGroup.ObsGroupName;
    end;
    if Param.Transform = ptLog then
    begin
      Equation := Format('1.0 * log(%0:s) = %1:g', [ParameterName, Log10(InitialValue)]);
    end
    else
    begin
      Equation := Format('1.0 * %0:s = %1:g', [ParameterName, InitialValue]);
    end;
    FPriorInfomationEquations.Add(Format(' %0:s          %1:s       %2:g     %3:s',
      [EquationName, Equation, Param.InitialValuePriorInfoWeight, ObsGroupName]));
  end;
begin
  CommentCount := 0;
  FPriorInfomationEquations.Clear;
  if not Model.PestProperties.UseInitialValuePriorInfo
    and not Model.PestProperties.UseHorizontalSpatialContinuityPriorInfo
    and not Model.PestProperties.UseVertSpatialContinuityPriorInfo then
  begin
    result := 0;
    Exit;
  end;
  GetUsedTypes(UsedTypes);

  EquationCount := 0;
  OldDecimalSeparator := FormatSettings.DecimalSeparator;
  FormatSettings.DecimalSeparator := '.';
  LinkQuadQuadTree := TRbwQuadTree.Create(nil);
  LocationQuadTree := TRbwQuadTree.Create(nil);
  ObservationGroupNames := TStringList.Create;
  try
    DisLimits := Model.DiscretizationLimits(vdTop);
    LocationQuadTree.XMax := DisLimits.MaxX;
    LocationQuadTree.XMin := DisLimits.MinX;
    LocationQuadTree.YMax := DisLimits.MaxY;
    LocationQuadTree.YMin := DisLimits.MinY;
    LocationQuadTree.MaxPoints := Model.PestProperties.MaxPilotPointsInRange;

    LinkQuadQuadTree.XMax := Model.PilotPointCount;
    LinkQuadQuadTree.XMin := 0;
    LinkQuadQuadTree.YMax := LinkQuadQuadTree.XMax;
    LinkQuadQuadTree.YMin := 0;
    LinkQuadQuadTree.MaxPoints := Model.PestProperties.MaxPilotPointsInRange;

    ObservationGroupNames.Sorted := True;
    ObservationGroupNames.Duplicates := dupIgnore;
    ObservationGroupNames.CaseSensitive := False;
    ObservationGroups := Model.PestProperties.PriorInfoObservationGroups;

    SearchDistance := Model.PestProperties.SeachDistance;
    MaxPilotPointsInRange := Model.PestProperties.MaxPilotPointsInRange;
    for ObsGroupIndex := 0 to ObservationGroups.Count - 1 do
    begin
      ObsGroup := ObservationGroups[ObsGroupIndex];
      ObservationGroupNames.AddObject(ObsGroup.ObsGroupName, ObsGroup);
    end;

    PilotPointParameters := TStringList.Create;
    try
      FUsePval := False;
      for ParamIndex := 0 to Model.ModflowSteadyParameters.Count - 1 do
      begin
        ASteadyParam := Model.ModflowSteadyParameters[ParamIndex];
        if ASteadyParam.ParameterType in UsedTypes then
        begin
          if (ASteadyParam.Transform in [ptNoTransform, ptLog]) then
          begin
            if ASteadyParam.UseInitialValuePriorInfo
              and (ASteadyParam.UsedDirectly or (ASteadyParam.ParameterType <> ptPEST)) then
            begin
              WriteInitialValueEquation(ASteadyParam, ASteadyParam.Value, '', nil);
            end;

            if ASteadyParam.UsePilotPoints then
            begin
              PilotPointParameters.AddObject(ASteadyParam.ParameterName, ASteadyParam);
            end;
          end;
        end;
      end;
      PilotPointParameters.CaseSensitive := False;
      PilotPointParameters.Sorted := True;

      for index := 0 to Model.PilotPointData.Count - 1 do
      begin
        PilotPointItem := Model.PilotPointData[index];
        ParamIndex := PilotPointParameters.IndexOf(PilotPointItem.BaseParamName);
        if ParamIndex >= 0 then
        begin
          ASteadyParam := PilotPointParameters.Objects[ParamIndex] as TModflowSteadyParameter;
          if ASteadyParam.UseInitialValuePriorInfo then
          begin
            for ParameterIndex := 1 to PilotPointItem.Count do
            begin
              PilotParamName := PilotPointItem.ParameterName(ParameterIndex);
              WriteInitialValueEquation(ASteadyParam,
                PilotPointItem.Values[ParameterIndex-1].Value, PilotParamName,
                PilotPointItem);
            end;
          end;

          if Model.PestProperties.UseHorizontalSpatialContinuityPriorInfo
            and ASteadyParam.UseHorizontalSpatialContinuityPriorInfo then
          begin
            WriteHorizontalContinuityEquations(ASteadyParam, PilotPointItem)
            // Write Spatial Continuity equations
          end;
        end
        else
        begin
          frmErrorsAndWarnings.AddError(Model, StrParameterUndefined,
            Format(StrPilotPointsWereDe, [PilotPointItem.BaseParamName]));
        end;
      end;

      if Model.PestProperties.UseVertSpatialContinuityPriorInfo
        and (Model.LayerCount > 1) then
      begin
        PilotPointItemSortList := TList<TStoredPilotParamDataItem>.Create;
        try
          for index := 0 to Model.PilotPointData.Count - 1 do
          begin
            PilotPointItem := Model.PilotPointData[index];
            PilotPointItemSortList.Add(PilotPointItem);
          end;
          PilotPointItemSortList.Sort(
            TComparer<TStoredPilotParamDataItem>.Construct(
              function(const Left, Right: TStoredPilotParamDataItem): Integer
              begin
                Result := CompareStr( Left.BaseParamName, Right.BaseParamName);
                if Result = 0 then
                begin
                  Result := CompareStr( Left.DataArrayName, Right.DataArrayName);
                  if result = 0 then
                  begin
                    result := Left.Layer - Right.Layer;
                  end;
                end;
              end
            ));
            for ItemIndex := 0 to PilotPointItemSortList.Count - 2 do
            begin
              PilotPointItem1 := PilotPointItemSortList[ItemIndex];
              PilotPointItem2 := PilotPointItemSortList[ItemIndex+1];
              if (PilotPointItem1.Points.Count = 0) or (PilotPointItem2.Points.Count = 0) then
              begin
                Continue;
              end;
              if
                (PilotPointItem1.BaseParamName = PilotPointItem2.BaseParamName)
                and (PilotPointItem1.DataArrayName = PilotPointItem2.DataArrayName)
                and (Abs(PilotPointItem1.Layer - PilotPointItem2.Layer) = 1)
                then
              begin
                ParamIndex := PilotPointParameters.IndexOf(
                  PilotPointItem1.BaseParamName);
                if ParamIndex >= 0 then
                begin
                  ASteadyParam := PilotPointParameters.Objects[ParamIndex]
                    as TModflowSteadyParameter;
                  if ASteadyParam.UseVertSpatialContinuityPriorInfo then
                  begin
                    WriteVerticalContinuityEquation(PilotPointItem1,
                      PilotPointItem2, ASteadyParam);
                  end;
                end
                else
                begin
                  frmErrorsAndWarnings.AddError(Model, StrParameterUndefined,
                    Format(StrPilotPointsWereDe, [PilotPointItem.BaseParamName]));
                end;
              end;
            end;
          finally
          PilotPointItemSortList.Free;
        end;
      end;
    finally
      PilotPointParameters.Free;
    end;

    if Model.PestProperties.UseInitialValuePriorInfo then
    begin
      for ParamIndex := 0 to Model.ModflowTransientParameters.Count - 1 do
      begin
        AParam := Model.ModflowTransientParameters[ParamIndex];
        if AParam.ParameterType in UsedTypes then
        begin
          if AParam.UseInitialValuePriorInfo
            and (AParam.Transform in [ptNoTransform, ptLog]) then
          begin
            WriteInitialValueEquation(AParam, AParam.Value, '', nil);
          end;
        end;
      end;

      for ParamIndex := 0 to Model.HufParameters.Count - 1 do
      begin
        AParam := Model.HufParameters[ParamIndex];
        if AParam.ParameterType in UsedTypes then
        begin
          if AParam.UseInitialValuePriorInfo
            and (AParam.Transform in [ptNoTransform, ptLog]) then
          begin
            WriteInitialValueEquation(AParam, AParam.Value, '', nil);
          end;
        end;
      end;
    end;

  finally
    ObservationGroupNames.Free;
    LocationQuadTree.Free;
    LinkQuadQuadTree.Free;