HelpScribble project file.
16
_vpuneq O. dvafgba-04P935
0
2
GW_Chart



TRUE

C:\Program Files\JGsoft\HelpScribble\Gw_chart
1
BrowseButtons()
0
FALSE

FALSE
TRUE
16777215
0
16711680
8388736
255
TRUE
TRUE
TRUE
TRUE
150
50
600
500
TRUE
FALSE
1
FALSE
FALSE
Contents
%s Contents
Index
%s Index
Previous
Next
FALSE

59
10
Scribble10
GW_Chart



general:000010
Writing



FALSE
19
{\rtf1\ansi\ansicpg1252\deff0\deflang1033{\fonttbl{\f0\fswiss Arial;}{\f1\froman Times New Roman;}{\f2\froman\fcharset0 Times New Roman;}{\f3\fnil\fcharset0 Times New Roman;}}
{\colortbl ;\red0\green0\blue255;\red0\green128\blue0;\red128\green0\blue0;\red0\green0\blue0;}
\viewkind4\uc1\pard\cf1\b\f0\fs32 GW_Chart\cf0\b0\fs20 
\par \f1\fs24 
\par GW_Chart is a program for creating specialized graphs used in ground-water studies.\f2  It can also be used to convert some of the binary files produced by MODFLOW to text files.\f1   It incorporates the functionality of two previous programs, Budgeteer and Hydrograph Extractor and adds additional new features.  There are \f2 seven \f1 major types of graphs created with GW_Chart\f2  as well as a selection for converting budget files.\f1 
\par 
\par \cf2\strike Calibration Plots\cf3\strike0\{linkID=100\}\cf0 
\par \cf2\strike Water Budget Plots\cf3\strike0\{linkID=350\}\cf0 
\par \cf2\strike Hydrographs\cf3\strike0\{linkID=400\}\cf0 
\par \cf2\strike Lake and Gage Plots\cf3\strike0\{linkID=500\}\cf0 
\par \cf2\strike Piper Diagrams\cf3\strike0\{linkID=600\}
\par \cf2\strike Cell Water Budgets\f2  or Zeta\cf3\strike0\f1\{linkID=635\}
\par \cf2\strike Farm Budgets\cf3\strike0\{linkID=645\}
\par \cf2\strike Convert Cell \f2 Cell\f1  Budgets\f2  or Zeta\cf3\strike0\f1\{linkID=640\}
\par \cf4\f3 
\par To converting MODFLOW cell-by-cell budgets, select "Chart Type/Convert|\cf2\strike Convert Cell Water Budgets\cf3\strike0\{linkID=640\}\cf4 ".\cf0\f1 
\par 
\par 
\par }
20
Scribble20
Formatting Charts



general:000020
Writing



FALSE
25
{\rtf1\ansi\deff0\deflang1033{\fonttbl{\f0\fswiss Arial;}{\f1\froman Times New Roman;}{\f2\fnil\fcharset2 Symbol;}}
{\colortbl ;\red0\green0\blue255;}
\viewkind4\uc1\pard\cf1\b\f0\fs32 Formatting Charts\cf0\b0\f1\fs24 
\par 
\par \pard{\pntext\f2\'B7\tab}{\*\pn\pnlvlblt\pnf2\pnindent200{\pntxtb\'B7}}\fi-200\li200\b Title\b0 : This is the title that will appear at the top of the graph.
\par \b{\pntext\f2\'B7\tab}Font\b0  (button next to Title): This is the Font that will be used for the title.
\par \pard 
\par \pard{\pntext\f2\'B7\tab}{\*\pn\pnlvlblt\pnf2\pnindent200{\pntxtb\'B7}}\fi-200\li200\b X Axis, Y Axis:\b0 
\par \pard{\pntext\f2\'B7\tab}{\*\pn\pnlvlblt\pnf2\pnindent180{\pntxtb\'B7}}\fi-180\li440\b Title\b0 : This is the title that will appear on the X or Y axis.
\par \b{\pntext\f2\'B7\tab}Font\b0  (button next to Axis Title): This is the font used for the X or Y axis.
\par \b{\pntext\f2\'B7\tab}Automatic\b0 : This determines whether the limits of the X or Y axis will be determined automatically or set by the user.
\par \b{\pntext\f2\'B7\tab}Show Grid\b0 : This determines whether grid lines will be shown.
\par \b{\pntext\f2\'B7\tab}Show Ticks\b0 : This determines whether or not Tick marks will be shown.
\par \b{\pntext\f2\'B7\tab}Beginning\b0 : If the limits of the X or Y axis will not be determined automatically, this is the lower limit of the axis.
\par \b{\pntext\f2\'B7\tab}End\b0 :  If the limits of the X or Y axis will not be determined automatically, this is the upper limit of the axis.
\par \b{\pntext\f2\'B7\tab}Tick Interval\b0 : This is the minimum step between axis labels.  This value will be used as the starting axis labels step. If there is not enough space for all labels, a larger one will be calculated.
\par \b{\pntext\f2\'B7\tab}Tick Font\b0 : This is the font for the labels on the ticks.
\par \b{\pntext\f2\'B7\tab}Format\b0 : This string controls the formatting of the labels on the axis.  A "#" allows a character to be placed at the position occupied by the "#".
\par \pard 
\par \pard{\pntext\f2\'B7\tab}{\*\pn\pnlvlblt\pnf2\pnindent200{\pntxtb\'B7}}\fi-200\li200\b Legend\b0 : This controls whether or not the legend is visible.
\par \b{\pntext\f2\'B7\tab}Legend Font\b0 : This is the font for the Legend.
\par \pard 
\par \pard{\pntext\f2\'B7\tab}{\*\pn\pnlvlblt\pnf2\pnindent200{\pntxtb\'B7}}\fi-200\li200\b Left Margin, Right Margin, Top Margin, Bottom Margin\b0 : These control the space between the edge of the window that has the chart and the chart itself.
\par \pard 
\par }
100
Scribble100
Calibration Plots



general:000030
Writing



FALSE
26
{\rtf1\ansi\ansicpg1252\deff0\deflang1033{\fonttbl{\f0\fswiss Arial;}{\f1\froman Times New Roman;}{\f2\froman\fcharset0 Times New Roman;}}
{\colortbl ;\red0\green0\blue255;\red128\green0\blue0;\red0\green128\blue0;}
\viewkind4\uc1\pard\cf1\b\f0\fs32 Calibration Plots\cf0\b0\f1\fs24 
\par 
\par \f2 C\f1 alibration plot\f2 s can be created using files generated by MODFLOW-2000 or UCODE-2005.  
\par \f1 
\par To create a calibration plot\f2  \f1 choose \b File|Open File\b0  or click on the Open File button. In the dialog box that appears, choose the type of file that you want to open, select a file, and then click on the Open button.  A chart will be created.
\par 
\par Once you have created a graph, you can change the type of graph that is displayed either by choosing the file name from the combo box labeled \b File\b0  on the toolbar or by selecting a chart type from the \b File|Select Chart Type\b0  menu item.  
\par 
\par \f2 In many of the plots, PLOT-SYMBOL as specified in the Head Observations input file Data item 3 and 6 or in other observation input files in Data item 4 is used to specify the symbol used to plot the data in GW_Chart Calibration plots.  The PLOT-SYMBOL is actually read from the output file created by MODFLOW-2000 or UCODE-2005 so you must rerun MODFLOW-2000 or UCODE-2005 after changing the PLOT-SYMBOL to see the results in GW_Chart.
\par 
\par The colors used for PLOT-SYMBOL 1 - 19 are shown in the figure below. For PLOT-SYMBOL = 20, the colors start over with the same color used for 1.
\par 
\par \cf2\{bmc ColorPalette.bmp\}\cf0\f1 
\par 
\par \cf3\strike Zooming\cf2\strike0\{linkID=110\}\cf0 
\par \cf3\strike Panning\cf2\strike0\{linkID=120\}\cf0 
\par \cf3\strike Label Points\cf2\strike0\{linkID=130\}\cf0 
\par \cf3\strike Printing\cf2\strike0\{linkID=140\}\cf0 
\par \cf3\strike Formatting Charts\cf2\strike0\{linkID=20\}\cf0 
\par \cf3\strike Save image\cf2\strike0\{linkID=142\}\cf0 
\par \cf3\strike Docking and undocking the toolbar\cf2\strike0\{linkID=145\}\cf0  
\par \cf3\strike Types of Calibration Plots\cf2\strike0\{linkID=150\}\cf0 
\par \pard\tx1820\tx5520 
\par }
110
Scribble110
Zooming



general:000040
Writing



FALSE
8
{\rtf1\ansi\deff0\deflang1033{\fonttbl{\f0\fswiss Arial;}{\f1\froman Times New Roman;}}
{\colortbl ;\red0\green0\blue255;}
\viewkind4\uc1\pard\cf1\b\f0\fs32 Zooming\cf0\b0\f1\fs24 
\par 
\par To zoom in on an area, click on the \b Zoom\b0  button or select \b Configure|Zoom in\b0 . Then click inside the area of the graph and drag the mouse from the upper left towards the lower right while holding down the left mouse button. When you release the mouse, the graph will zoom in on the area you outlined.
\par 
\par To go back to viewing the full graph, click on the Zoom out button or select \b Configure|Zoom extents\b0 .
\par }
120
Scribble120
Panning



general:000050
Writing



FALSE
8
{\rtf1\ansi\deff0\deflang1033{\fonttbl{\f0\fswiss Arial;}{\f1\froman Times New Roman;}}
{\colortbl ;\red0\green0\blue255;}
\viewkind4\uc1\pard\cf1\b\f0\fs32 Panning\cf0\b0\f1\fs24 
\par 
\par To start panning, click on the \b Pan\b0  button or select \b Configure|Pan\b0 . Then hold down the left mouse button while dragging inside the graph.  The graph will pan to follow the mouse cursor.
\par 
\par To stop panning, either click on the \b Pan\b0  button again or select \b Configure|Stop Panning\b0 . 
\par }
130
Scribble130
Label Points



general:000060
Writing



FALSE
6
{\rtf1\ansi\deff0\deflang1033{\fonttbl{\f0\fswiss Arial;}{\f1\froman Times New Roman;}}
{\colortbl ;\red0\green0\blue255;}
\viewkind4\uc1\pard\cf1\b\f0\fs32 Label Points\cf0\b0\f1\fs24 
\par 
\par For many types of graphs, you can show a label with the name of the data point above the data point.  To see such a label, make sure the \b Label Points\b0  checkbox is checked and then click on the data point.  A label will then appear above the data point and on the status bar.  If the \b Label Points\b0  checkbox is not checked, the name of the data point will just appear on the status bar.  You can uncheck the Label Points checkbox to remove all the labels or click on a data point again to hide the label for that data point.
\par }
140
Scribble140
Printing



general:000070
Writing



FALSE
8
{\rtf1\ansi\deff0\deflang1033{\fonttbl{\f0\fswiss Arial;}{\f1\froman Times New Roman;}}
{\colortbl ;\red0\green0\blue255;}
\viewkind4\uc1\pard\cf1\b\f0\fs32 Printing\cf0\b0\f1\fs24 
\par 
\par To set up the printer for printing , select \b File|Print setup\b0 .
\par 
\par To print the graph, click on the \b Print\b0  button on select \b File|Print\b0 .
\par }
142
Scribble142
Save image



general:000080
Writing



FALSE
6
{\rtf1\ansi\deff0\deflang1033{\fonttbl{\f0\fswiss Arial;}{\f1\froman Times New Roman;}}
{\colortbl ;\red0\green0\blue255;}
\viewkind4\uc1\pard\cf1\b\f0\fs32 Save image\cf0\b0\f1\fs24 
\par 
\par To save an image of the graph, select \b File|Save as Image\b0  or click on the \b Save Image\b0  button.  The image can be saved as a bitmap, Windows metafile or Enhanced Windows metafile.
\par }
145
Scribble145
Docking and undocking the toolbar 



general:000090
Writing



FALSE
6
{\rtf1\ansi\deff0\deflang1033{\fonttbl{\f0\fswiss Arial;}{\f1\froman Times New Roman;}}
{\colortbl ;\red0\green0\blue255;}
\viewkind4\uc1\pard\cf1\b\f0\fs32 Docking and undocking the toolbar \cf0\b0\f1\fs24 
\par 
\par The tool bar can be undocked from the rest of the application by clicking on it and dragging it to a new position or by selecting the \b Undock Toolbar\b0  menu item.  It can be redocked by dragging it back over the rest of the application or by selecting the \b Dock Toolbar\b0  menu item or by clicking on the \b Close\b0  button on the toolbar.
\par }
150
Scribble150
Types of Calibration Plots



general:000100
Writing



FALSE
116
{\rtf1\fbidis\ansi\ansicpg1252\deff0\deflang1033{\fonttbl{\f0\fswiss\fcharset0 Arial;}{\f1\froman\fcharset0 Times New Roman;}{\f2\froman Times New Roman;}{\f3\froman\fprq2\fcharset0 Times New Roman;}{\f4\fswiss\fprq2\fcharset0 Calibri;}}
{\colortbl ;\red0\green0\blue255;\red0\green128\blue0;\red128\green0\blue0;\red0\green0\blue0;}
\viewkind4\uc1\pard\ltrpar\cf1\b\f0\fs32 Types of Calibration Plots\cf0\b0\f1\fs24 
\par 
\par \f2 GW_Chart can create calibration plots based on output files created by MODFLOW-2000.  The plots are the types recommended by \cf2\strike Hill (1998)\f1 , Hill and others (2000), or Poeter and others (2005)\cf3\strike0\{linkID=1000\}\cf0 .
\par 
\par \trowd\trgaph108\trleft-108\cellx2127\cellx5400\pard\intbl\ltrpar\sl276\slmult1\b\f3 file type\cell plot type\cell\row
\cf2\b0\strike\trowd\trgaph108\trleft-108\cellx2127\cellx5400\intbl _xyztwr\cf3\strike0\{linkID=152\}\cf0\cell Distribution of residuals in space and time\cell\row
\trowd\cellx2127\cellx5400\pard\intbl\ltrpar\sl276\slmult1\cf4\cell\cf0\cell\row
\trowd\trgaph108\trleft-108\cellx2127\cellx5400\pard\intbl\ltrpar\sl276\slmult1\cf2\strike _os\cf3\strike0\{linkID=155\}\cf0\cell Unweighted observations vs.\cell\row
\intbl\cell Unweighted simulated equivalents \cell\row
\trowd\cellx2127\cellx5400\pard\intbl\ltrpar\sl276\slmult1\cf4\cell\cf0\cell\row
\trowd\trgaph108\trleft-108\cellx2127\cellx5400\pard\intbl\ltrpar\sl276\slmult1\cf2\strike _ww\cf3\strike0\{linkID=156\}\cf0\cell Weighted observations vs.\cell\row
\intbl\cell Weighted simulated values\cell\row
\trowd\cellx2127\cellx5400\pard\intbl\ltrpar\sl276\slmult1\cf4\cell\cf0\cell\row
\trowd\trgaph108\trleft-108\cellx2127\cellx5400\pard\intbl\ltrpar\sl276\slmult1\cf2\strike _ws\cf3\strike0\{linkID=160\}\cf0\cell Weighted residuals vs.\cell\row
\intbl\cell Weighted simulated values\cell\row
\intbl\cell\cell\row
\cf2\strike\trowd\trgaph108\trleft-108\cellx2127\cellx5400\intbl _nm\cf3\strike0\{linkID=180\}\cf0\cell Normal Probability Graphs\cell\row
\intbl\cell\cell\row
\cf2\strike\trowd\trgaph108\trleft-108\cellx2127\cellx5400\intbl _rd\cf3\strike0\{linkID=182\}\cf0\cell Normal probability graph \cell\row
\intbl\cell of random numbers\cell\row
\intbl\cell\cell\row
\cf2\strike\trowd\trgaph108\trleft-108\cellx2127\cellx5400\intbl _rg\cf3\strike0\{linkID=184\}\cf0\cell Normal probability graph \cell\row
\intbl\cell of correlated random numbers\cell\row
\intbl\cell\cell\row
\cf2\strike\trowd\trgaph108\trleft-108\cellx2127\cellx5400\intbl _ss\cf3\strike0\{linkID=186\}\cf0\cell Sum of squared weighted residuals\cell\row
\intbl\cell vs iteration number\cell\row
\intbl\cell\cell\row
\cf2\strike\trowd\trgaph108\trleft-108\cellx2127\cellx5400\intbl _rdadv\cf3\strike0\{linkID=188\}\cf0\cell Weighted residuals with confidence intervals\cell\row
\intbl\cell\cell\row
\cf2\strike\trowd\trgaph108\trleft-108\cellx2127\cellx5400\intbl _sd\cf3\strike0\{linkID=189\}\cf0\cell Dimensionless scaled sensitivities for each parameter  vs. observation name\cell\row
\intbl\cell\b OR\b0\cell\row
\intbl\cell Dimensionless scaled sensitivities for each observation\cell\row
\intbl\cell vs. parameter name\cell\row
\intbl\cell\cell\row
\cf2\strike\trowd\trgaph108\trleft-108\cellx2127\cellx5400\intbl _sc\cf3\strike0\{linkID=200\}\cf0\cell Composite scaled sensitivity \cell\row
\intbl\cell vs. parameter name\cell\row
\intbl\cell\cell\row
\cf2\strike\trowd\trgaph108\trleft-108\cellx2127\cellx5400\intbl _pcc\cf3\strike0\{linkID=210\}\cf0\cell Parameter correlation coefficient\cell\row
\cf2\strike\trowd\trgaph108\trleft-108\cellx2127\cellx5400\intbl\cell\cf0\strike0 vs. names of a pair of parameters\cell\row
\intbl\cell\cell\row
\cf2\strike\trowd\trgaph108\trleft-108\cellx2127\cellx5400\intbl _so\cf3\strike0\{linkID=221\}\cf0\cell Leverage statistics\cell\row
\intbl\cell\cell\row
\cf2\strike\trowd\trgaph108\trleft-108\cellx2127\cellx5400\intbl _s1\cf3\strike0\{linkID=222\}\cf0\cell One-percent scaled sensitivities for each parameter\cell\row
\intbl\cell vs. observation name\cell\row
\intbl\cell\b OR\b0\cell\row
\intbl\cell One-percent scaled sensitivities for each observation\cell\row
\intbl\cell vs. parameter name\cell\row
\intbl\cell\cell\row
\cf2\strike\trowd\trgaph108\trleft-108\cellx2127\cellx5400\intbl _rb\cf3\strike0\{linkID=250\}\cf0\cell DFBetas statistics\cell\row
\intbl\cell vs. observation name\cell\row
\intbl\cell\cell\row
\cf2\strike\trowd\trgaph108\trleft-108\cellx2127\cellx5400\intbl _rc\cf3\strike0\{linkID=260\}\cf0\cell Cook's D statistic \cell\row
\intbl\cell vs. observation name\cell\row
\intbl\cell\cell\row
\cf2\strike\trowd\trgaph108\trleft-108\cellx2127\cellx5400\intbl _b\cf3\strike0\{linkID=265\}\cf0\cell Parameter value\cell\row
\intbl\cell vs. parameter iteration\cell\row
\intbl\cell\cell\row
\cf2\strike\trowd\trgaph108\trleft-108\cellx2127\cellx5400\intbl _pa\cf3\strike0\{linkID=265\}\cf0\cell Parameter value\cell\row
\intbl\cell vs. parameter iteration\cell\row
\intbl\cell\cell\row
\cf2\strike\trowd\trgaph108\trleft-108\cellx2127\cellx5400\intbl _pc\cf3\strike0\{linkID=275\}\cf0\cell Parameter value, confidence interval, and reasonable range\cell\row
\intbl\cell vs parameter name\cell\row
\intbl\cell\cell\row
\cf2\strike\trowd\trgaph108\trleft-108\cellx2127\cellx5400\intbl _ppr\cf3\strike0\{linkID=283\}\cf0\cell Percent Change in Prediction Standard Deviation\cell\row
\intbl\cell vs. Parameter name\cell\row
\intbl\cell\cell\row
\cf2\strike\trowd\trgaph108\trleft-108\cellx2127\cellx5400\intbl _ppr_abschg\cf3\strike0\{linkID=284\}\cf0\cell Absolute Change in Prediction Standard Deviation\cell\row
\intbl\cell vs. Parameter name\cell\row
\intbl\cell\cell\row
\cf2\strike\trowd\trgaph108\trleft-108\cellx2127\cellx5400\intbl _ppa\cf3\strike0\{linkID=285\}\cf0\cell Percent Change in Parameter Standard Deviation\cell\row
\intbl\cell vs. Parameter name\cell\row
\cf2\strike\trowd\trgaph108\trleft-108\cellx2127\cellx5400\intbl\cell\cf0\strike0\cell\row
\cf2\strike\trowd\trgaph108\trleft-108\cellx2127\cellx5400\intbl _ppa_abschg\cf3\strike0\{linkID=287\}\cf0\cell Absolute Change in Parameter Standard Deviation\cell\row
\intbl\cell vs. Parameter name\cell\row
\intbl\cell\cell\row
\cf2\strike\trowd\trgaph108\trleft-108\cellx2127\cellx5400\intbl _opr\cf3\strike0\{linkID=288\}\cf0\cell Percent Change in Prediction Standard Deviation\cell\row
\intbl\cell vs. Observation name\cell\row
\intbl\cell\cell\row
\cf2\strike\trowd\trgaph108\trleft-108\cellx2127\cellx5400\intbl _opr_abschg\cf3\strike0\{linkID=289\}\cf0\cell Absolute Change in Prediction Standard Deviation\cell\row
\intbl\cell vs. Observation name\cell\row
\intbl\cell\cell\row
\cf2\strike\trowd\trgaph108\trleft-108\cellx2127\cellx5400\intbl _opa\cf3\strike0\{linkID=290\}\cf0\cell Percent Change in Parameter Standard Deviation\cell\row
\intbl\cell vs. Observation name\cell\row
\intbl\cell\cell\row
\cf2\strike\trowd\trgaph108\trleft-108\cellx2127\cellx5400\intbl _opa_abschg\cf3\strike0\{linkID=291\}\cf0\cell Absolute Change in Parameter Standard Deviation\cell\row
\intbl\cell vs. Observation name\cell\row
\intbl\cell\cell\row
\cf2\strike\trowd\trgaph108\trleft-108\cellx2127\cellx5400\intbl _sppp\cf3\strike0\{linkID=292\}\cf0\cell Prediction Change Per 1% Parameter Value Change\cell\row
\intbl\cell vs. Predictions \b OR\b0  Parameters\cell\row
\intbl\cell\cell\row
\cf2\strike\trowd\trgaph108\trleft-108\cellx2127\cellx5400\intbl _spsp\cf3\strike0\{linkID=293\}\cf0\cell Prediction Change Per a Parameter Change Equal to 1% of the Parameter Standard Deviation\cell\row
\intbl\cell vs. Predictions \b OR\b0  Parameters\cell\row
\intbl\cell\cell\row
\cf2\strike\trowd\trgaph108\trleft-108\cellx2127\cellx5400\intbl _sppr\cf3\strike0\{linkID=294\}\cf0\cell Prediction Change as % of Reference Value Per 1% Parameter Value Change\cell\row
\intbl\cell vs. Predictions \b OR\b0  Parameters\cell\row
\intbl\cell\cell\row
\cf2\strike\trowd\trgaph108\trleft-108\cellx2127\cellx5400\intbl _spsr\cf3\strike0\{linkID=295\}\cf0\cell Prediction Change as % of Reference Value Per a Parameter Change Equal to 1% of the Parameter Standard Deviation\cell\row
\intbl\cell vs. Predictions \b OR\b0  Parameters\cell\row
\intbl\cell\cell\row
\cf2\strike\trowd\trgaph108\trleft-108\cellx2127\cellx5400\intbl _linp\cf3\strike0\{linkID=296\}\cf0\cell Linear Confidence Intervals\cell\row
\intbl\cell\cell\row
\cf2\strike\trowd\trgaph108\trleft-108\cellx2127\cellx5400\intbl _intconf\cf3\strike0\{linkID=297\}\cf0\cell Nonlinear Confidence Intervals\cell\row
\intbl\cell\cell\row
\cf2\strike\trowd\trgaph108\trleft-108\cellx2127\cellx5400\intbl _intpred\cf3\strike0\{linkID=298\}\cf0\cell Nonlinear Prediction Intervals\cell\row
\intbl\cell\cell\row
\cf2\strike\trowd\trgaph108\trleft-108\cellx2127\cellx5400\intbl _scgrp\cf3\strike0\{linkID=299\}\cf0\cell CSS stacked by obs type\cell\row
\pard\ltrpar\sa200\sl276\slmult1\f4\fs22 
\par \pard\ltrpar\f3\fs24 
\par 
\par 
\par 
\par 
\par \b\f1 
\par }
152
Scribble152
_xyztwr




Writing



FALSE
21
{\rtf1\ansi\ansicpg1252\deff0\deflang1033{\fonttbl{\f0\fnil\fcharset0 Arial;}{\f1\fnil\fcharset0 Times New Roman;}{\f2\froman\fcharset0 Times New Roman;}}
{\colortbl ;\red0\green0\blue255;\red0\green0\blue0;\red0\green128\blue0;\red128\green0\blue0;}
\viewkind4\uc1\pard\cf1\b\fs32 _xyztwr\cf2\b0\f1\fs22 
\par 
\par \b Plots of X, Y, Z, or time against X, Y, Z or time.\b0 
\par The area or each circle represents the absolute value of the residual or weighted residual and are plotted according to their location in space and time.  Blue circles represent positive residuals and red circles represent negative residuals.
\par 
\par There should be no obvious trends in the data.
\par 
\par \fs24 See \cf3\strike Poeter and others, 2005\cf4\strike0\{linkID=1000\}\cf2 , p. 151
\par See \cf3\strike Hill and Tiedeman, 2007\cf4\strike0\{linkID=1000\}\cf2 , p. 106-108.
\par 
\par \cf0\b\f2 Plots of residulas or weighted residuals against time
\par \b0 There should not be a trend in the data.
\par Time data come either from the ._os file (MODFLOW-2000) or the ._xyztwr file (UCODE-2005).
\par 
\par \cf2\f1 See \cf3\strike Poeter and others, 2005\cf4\strike0\{linkID=1000\}\cf2 , p. 149, 151, 180
\par See \cf3\strike Hill and Tiedeman, 2007\cf4\strike0\{linkID=1000\}\cf2 , p. 105-106.\cf0\f2 
\par \cf2\f1 
\par \fs22 
\par }
155
Scribble155
_os



general:000101
Writing



FALSE
11
{\rtf1\ansi\ansicpg1252\deff0\deflang1033{\fonttbl{\f0\fswiss\fcharset0 Arial;}{\f1\froman\fcharset0 Times New Roman;}{\f2\froman Times New Roman;}}
{\colortbl ;\red0\green0\blue255;\red0\green128\blue0;\red128\green0\blue0;}
\viewkind4\uc1\pard\cf1\b\f0\fs32 _os\cf0\b0\f1\fs24 
\par \f2 
\par \b\f1 Plots of observations against simulated values
\par \b0\f2 Ideally, points lie along a line with a slope of 1.0. Uneven spreading along the length of the line does not necessarily indicate problems because the values are not weighted.
\par 
\par (\cf2\strike Hill and others, 2000\cf3\strike0\{linkID=1000\}\cf0 , Table 16)
\par 
\par \b\f1 
\par }
156
Scribble156
_ww



general:000102
Writing



FALSE
11
{\rtf1\ansi\ansicpg1252\deff0\deflang1033{\fonttbl{\f0\fswiss\fcharset0 Arial;}{\f1\froman\fcharset0 Times New Roman;}{\f2\froman Times New Roman;}{\f3\fnil\fcharset0 Times New Roman;}}
{\colortbl ;\red0\green0\blue255;\red0\green128\blue0;\red128\green0\blue0;\red0\green0\blue0;}
\viewkind4\uc1\pard\cf1\b\f0\fs32 _ww\cf0\b0\f1\fs24 
\par \f2 
\par Ideally, points lie along a line with a slope of 1.0. Different slope or uneven spreading may indicate problems.
\par 
\par (\cf2\strike Hill, 1998\cf3\strike0\{linkID=1000\}\cf0 , p. 21-22; \cf2\strike Hill and others, 2000\cf3\strike0\{linkID=1000\}\cf0 , Table 16)
\par 
\par \cf4\f3 See \cf2\strike Poeter and others, 2005\cf3\strike0\{linkID=1000\}\cf4 , p. 149, 151, 180
\par See \cf2\strike Hill and Tiedeman, 2007\cf3\strike0\{linkID=1000\}\cf4 , p. 105-106.\cf0\f1 
\par }
160
Scribble160
_ws



general:000103
Writing



FALSE
19
{\rtf1\ansi\ansicpg1252\deff0\deflang1033{\fonttbl{\f0\fswiss\fcharset0 Arial;}{\f1\froman\fcharset0 Times New Roman;}{\f2\froman Times New Roman;}{\f3\fnil\fcharset0 Times New Roman;}}
{\colortbl ;\red0\green0\blue255;\red0\green128\blue0;\red128\green0\blue0;\red0\green0\blue0;}
\viewkind4\uc1\pard\cf1\b\f0\fs32 _ws\cf0\b0\f1\fs24 
\par \f2 
\par \b\f1 Plots of weighted residuals against simulated values
\par \b0\f2 Ideally, the points are evenly distributed above and below the zero\f1  on the Y axis (weighted residuals for MODLOW-2000; unweighted simulated equivalents for UCODE-2005), which indicates random weighted residuals. Uneven spreading along the zero axis may indicate problems.
\par 
\par (\cf2\strike Hill, 1998\cf3\strike0\{linkID=1000\}\cf0 , p. 20-21; \cf2\strike Hill and others, 2000\cf3\strike0\{linkID=1000\}\cf0 , Table 16)
\par 
\par By default, the increment for the grid lines in the y-axis will be set the standard error of the regression.  However, if the range of the y-axis values is large enough that there would be too many lines, another increment will be selected automatically.
\par \cf4\f3 
\par See \cf2\strike Poeter and others, 2005\cf3\strike0\{linkID=1000\}\cf4 , p. 149, 151, 180
\par See \cf2\strike Hill and Tiedeman, 2007\cf3\strike0\{linkID=1000\}\cf4 , p. 100-104.
\par 
\par \cf0\b\f1 Plots of weighted residuals against time
\par \b0 There should not be a trend in the data.
\par Time data come from the ._xyztwr file generated by UCODE-2005.
\par 
\par }
180
Scribble180
_nm



general:000104
Writing



FALSE
13
{\rtf1\ansi\ansicpg1252\deff0\deflang1033{\fonttbl{\f0\fswiss\fcharset0 Arial;}{\f1\froman\fcharset0 Times New Roman;}{\f2\froman Times New Roman;}{\f3\fnil\fcharset0 Times New Roman;}{\f4\fnil\fcharset2 Symbol;}}
{\colortbl ;\red0\green0\blue255;\red0\green128\blue0;\red128\green0\blue0;\red0\green0\blue0;}
\viewkind4\uc1\pard\cf1\b\f0\fs32 _nm\cf0\b0\f1\fs24 
\par \f2 
\par Ideally, the weighted residuals fall along a straight line. If not, possibilities include: 
\par \pard{\pntext\f4\'B7\tab}{\*\pn\pnlvlblt\pnf4\pnindent200{\pntxtb\'B7}}\fi-200\li200 The apparent non randomness results from limited number of values or from the regression itself, which can be tested using the \cf2\strike _rd\cf3\strike0\{linkID=182\}\cf0  and \cf2\strike _rg\cf3\strike0\{linkID=184\}\cf0  files
\par {\pntext\f4\'B7\tab}problems are indicated.
\par \pard 
\par (\cf2\strike Hill, 1998\cf3\strike0\{linkID=1000\}\cf0 , p. 23-24; \cf2\strike Hill and others, 2000\cf3\strike0\{linkID=1000\}\cf0 , Table 16)
\par 
\par \cf4\f3 See \cf2\strike Poeter and others, 2005\cf3\strike0\{linkID=1000\}\cf4 , p. 149, 151, 180
\par See \cf2\strike Hill and Tiedeman, 2007\cf3\strike0\{linkID=1000\}\cf4 , p. 108-111.\cf0\f1 
\par }
182
Scribble182
_rd



general:000105
Writing



FALSE
12
{\rtf1\ansi\ansicpg1252\deff0\deflang1033{\fonttbl{\f0\fswiss\fcharset0 Arial;}{\f1\froman\fcharset0 Times New Roman;}{\f2\froman Times New Roman;}{\f3\fnil\fcharset0 Times New Roman;}}
{\colortbl ;\red0\green0\blue255;\red0\green128\blue0;\red128\green0\blue0;\red0\green0\blue0;}
\viewkind4\uc1\pard\cf1\b\f0\fs32 _rd\cf0\b0\f1\fs24 
\par \f2 
\par Demonstrates the deviation from a straight line caused by the limited number of plotted values.
\par 
\par (\cf2\strike Hill, 1998\cf3\strike0\{linkID=1000\}\cf0 , p. 24; \cf2\strike Hill and others, 2000\cf3\strike0\{linkID=1000\}\cf0 , Table 17)
\par \pard\tx1820\tx5520 
\par \pard\cf4\f3 See \cf2\strike Poeter and others, 2005\cf3\strike0\{linkID=1000\}\cf4 , p. 162, 182
\par See \cf2\strike Hill and Tiedeman, 2007\cf3\strike0\{linkID=1000\}\cf4 , p. 111-113.\cf0\f1 
\par \pard\tx1820\tx5520\f2 
\par }
184
Scribble184
_rg



general:000106
Writing



FALSE
11
{\rtf1\ansi\ansicpg1252\deff0\deflang1033{\fonttbl{\f0\fswiss\fcharset0 Arial;}{\f1\froman\fcharset0 Times New Roman;}{\f2\froman Times New Roman;}{\f3\fnil\fcharset0 Times New Roman;}}
{\colortbl ;\red0\green0\blue255;\red0\green128\blue0;\red128\green0\blue0;\red0\green0\blue0;}
\viewkind4\uc1\pard\cf1\b\f0\fs32 _rg\cf0\b0\f1\fs24 
\par \f2 
\par Demonstrates the deviation from a straight line caused by the limited number of weighted residuals and by the regression fitting of the data.
\par 
\par (\cf2\strike Hill, 1998\cf3\strike0\{linkID=1000\}\cf0 , p. 24; \cf2\strike Hill and others, 2000\cf3\strike0\{linkID=1000\}\cf0 , Table 17)
\par 
\par \cf4\f3 See \cf2\strike Poeter and others, 2005\cf3\strike0\{linkID=1000\}\cf4 , p. 162, 182
\par See \cf2\strike Hill and Tiedeman, 2007\cf3\strike0\{linkID=1000\}\cf4 , p. 111-113.\cf0\f1 
\par }
186
Scribble186
_ss



general:000107
Writing



FALSE
9
{\rtf1\ansi\ansicpg1252\deff0\deflang1033{\fonttbl{\f0\fnil\fcharset0 Arial;}{\f1\fnil\fcharset0 Times New Roman;}{\f2\fnil Times New Roman;}}
{\colortbl ;\red0\green0\blue255;\red0\green0\blue0;\red0\green128\blue0;\red128\green0\blue0;}
\viewkind4\uc1\pard\cf1\b\fs32 _ss\cf2\b0\f1\fs24 
\par \f2 
\par \f1 The _ss file contains information on the sum of squared weighted residuals versus iteration number.  The data are separated into groups according to what type of observations are considered.  The results can be used to help assess whether parameter calibration has terminated properly or should be allowed to continue for more iterations.
\par 
\par See \cf3\strike Poeter and others, 2005\cf4\strike0\{linkID=1000\}\cf2 , p. 149, 180
\par See \cf3\strike Hill and Tiedeman, 2007\cf4\strike0\{linkID=1000\}\cf2 , p. 27-29.
\par }
188
Scribble188
_rdadv



general:000108
Writing



FALSE
11
{\rtf1\ansi\ansicpg1252\deff0\deflang1033{\fonttbl{\f0\fnil\fcharset0 Arial;}{\f1\fnil\fcharset0 Times New Roman;}{\f2\fnil Times New Roman;}}
{\colortbl ;\red0\green0\blue255;\red0\green0\blue0;\red0\green128\blue0;\red128\green0\blue0;}
\viewkind4\uc1\pard\cf1\b\fs32 _rdadv\cf2\b0\f1\fs24 
\par \f2 
\par _rdadv is used to plot ordered weighted residuals and their confidence intervals.\f1  the OBSERVATION_PLOT_SYMBOL determines the symbol used to represent the weighted residuals. The means of the theoretical weighted residuals are represented by diamonds.
\par \f2 
\par \cf3\strike\f1 Poeter and others, (2005)\cf4\strike0\{linkID=1000\}\cf2 .
\par 
\par See \cf3\strike Poeter and others, 2005\cf4\strike0\{linkID=1000\}\cf2 , p. 201-202.
\par See \cf3\strike Hill and Tiedeman, 2007\cf4\strike0\{linkID=1000\}\cf2 , p. 112-113.
\par }
189
Scribble189
_sd



general:000109
Writing



FALSE
35
{\rtf1\ansi\ansicpg1252\deff0\deflang1033{\fonttbl{\f0\fswiss\fcharset0 Arial;}{\f1\froman\fcharset0 Times New Roman;}{\f2\froman Times New Roman;}{\f3\fnil\fcharset0 Arial;}{\f4\fnil\fcharset0 Times New Roman;}}
{\colortbl ;\red0\green0\blue255;\red0\green0\blue0;\red0\green128\blue0;\red128\green0\blue0;}
\viewkind4\uc1\pard\cf1\b\f0\fs32 _sd\cf0\b0\f1\fs24 
\par \f2 
\par A parameter with large composite scaled sensitivity and many large dimensionless scaled sensitivities is probably more reliably estimated than a parameter with a large composite scaled sensitivity and one large dimensionless scaled sensitivity because the error of the single important observation is propagated directly into the estimate.
\par 
\par (Hill, 1998, p. 55-58; Hill and others, 2000, Table 16)
\par 
\par \f1 When observations are plotted on the X-Axis, the plot symbol of the observation determines the color of the corresponding axis label.
\par 
\par \trowd\trgaph30\trleft-30\cellx1391\cellx2399\pard\intbl\cf2\b\f3\fs20 Plot Symbol\cell Color\cell\row